
     RDKit          3D

 41 43  0  0  0  0  0  0  0  0999 V2000
   17.9038  -10.2126   -4.5136 C   0  0  0  0  0  0  0  0  0  0  0  0
   19.1621  -10.6628   -4.8194 C   0  0  0  0  0  0  0  0  0  0  0  0
   20.1997  -10.3403   -3.9997 C   0  0  0  0  0  0  0  0  0  0  0  0
   20.0005   -9.5717   -2.8739 C   0  0  0  0  0  0  0  0  0  0  0  0
   18.7131   -9.1271   -2.5858 C   0  0  0  0  0  0  0  0  0  0  0  0
   17.6516   -9.4435   -3.4035 C   0  0  0  0  0  0  0  0  0  0  0  0
   16.3080   -8.9403   -3.0403 C   0  0  0  0  0  0  0  0  0  0  0  0
   15.6391   -8.4219   -4.1587 O   0  0  0  0  0  1  0  0  0  0  0  0
   15.4533   -9.9967   -2.3984 C   0  0  0  0  0  0  0  0  0  0  0  0
   14.1723   -9.4359   -2.0788 N   0  0  0  0  0  0  0  0  0  0  0  0
   14.0586   -8.4068   -1.1229 C   0  0  0  0  0  0  0  0  0  0  0  0
   15.1038   -7.9227   -0.4381 N   0  0  0  0  0  0  0  0  0  0  0  0
   14.9580   -6.9394    0.4670 C   0  0  0  0  0  0  0  0  0  0  0  0
   13.7351   -6.4058    0.7132 N   0  0  0  0  0  0  0  0  0  0  0  0
   12.6428   -6.8443    0.0617 C   0  0  0  0  0  0  0  0  0  0  0  0
   11.3343   -6.2637    0.3344 C   0  0  0  0  0  0  0  0  0  0  0  0
   11.2561   -5.2407    1.2918 C   0  0  0  0  0  0  0  0  0  0  0  0
   10.0563   -4.6492    1.5980 C   0  0  0  0  0  0  0  0  0  0  0  0
    8.8755   -5.0201    0.9919 C   0  0  0  0  0  0  0  0  0  0  0  0
    7.5937   -4.3597    1.3462 C   0  0  0  0  0  0  0  0  0  0  0  0
    8.9707   -6.0245    0.0558 C   0  0  0  0  0  0  0  0  0  0  0  0
   10.1802   -6.6407   -0.2718 C   0  0  0  0  0  0  0  0  0  0  0  0
   12.8043   -7.8346   -0.8466 C   0  0  0  0  0  0  0  0  0  0  0  0
   17.0919  -10.4832   -5.1831 H   0  0  0  0  0  0  0  0  0  0  0  0
   19.3037  -11.2604   -5.6988 H   0  0  0  0  0  0  0  0  0  0  0  0
   21.2068  -10.6850   -4.2204 H   0  0  0  0  0  0  0  0  0  0  0  0
   20.8172   -9.3065   -2.2109 H   0  0  0  0  0  0  0  0  0  0  0  0
   18.6084   -8.5277   -1.6923 H   0  0  0  0  0  0  0  0  0  0  0  0
   16.4245   -8.0849   -2.3498 H   0  0  0  0  0  0  0  0  0  0  0  0
   15.2934  -10.8706   -3.0623 H   0  0  0  0  0  0  0  0  0  0  0  0
   15.9571  -10.4044   -1.4864 H   0  0  0  0  0  0  0  0  0  0  0  0
   13.3116   -9.7802   -2.5472 H   0  0  0  0  0  0  0  0  0  0  0  0
   15.8532   -6.5930    0.9885 H   0  0  0  0  0  0  0  0  0  0  0  0
   12.1916   -4.9327    1.7854 H   0  0  0  0  0  0  0  0  0  0  0  0
   10.0330   -3.8591    2.3456 H   0  0  0  0  0  0  0  0  0  0  0  0
    7.6908   -3.8640    2.3343 H   0  0  0  0  0  0  0  0  0  0  0  0
    6.7465   -5.0660    1.4084 H   0  0  0  0  0  0  0  0  0  0  0  0
    7.4366   -3.5514    0.6092 H   0  0  0  0  0  0  0  0  0  0  0  0
    8.0585   -6.3455   -0.4453 H   0  0  0  0  0  0  0  0  0  0  0  0
   10.1865   -7.4320   -1.0242 H   0  0  0  0  0  0  0  0  0  0  0  0
   11.9628   -8.2186   -1.3926 H   0  0  0  0  0  0  0  0  0  0  0  0
  1  2  2  0
  2  3  1  0
  3  4  2  0
  4  5  1  0
  5  6  2  0
  6  7  1  0
  7  8  1  0
  7  9  1  0
  9 10  1  0
 10 11  1  0
 11 12  2  0
 12 13  1  0
 13 14  2  0
 14 15  1  0
 15 16  1  0
 16 17  2  0
 17 18  1  0
 18 19  2  0
 19 20  1  0
 19 21  1  0
 21 22  2  0
 15 23  2  0
  6  1  1  0
 23 11  1  0
 22 16  1  0
  1 24  1  0
  2 25  1  0
  3 26  1  0
  4 27  1  0
  5 28  1  0
  7 29  1  0
  9 30  1  0
  9 31  1  0
 10 32  1  0
 13 33  1  0
 17 34  1  0
 18 35  1  0
 20 36  1  0
 20 37  1  0
 20 38  1  0
 21 39  1  0
 22 40  1  0
 23 41  1  0
M  RAD  1   8   2
M  END
