# created with PyMOL 2.4.2
@<TRIPOS>MOLECULE
3
44 46 1                 
SMALL
USER_CHARGES
@<TRIPOS>ATOM
1	C001	18.854	-9.145	-2.562	C.2	1	UNK0	0.000	
2	C002	20.073	-9.720	-2.853	C.2	1	UNK0	0.000	
3	C003	20.202	-10.570	-3.931	C.2	1	UNK0	0.000	
4	C004	19.078	-10.814	-4.690	C.2	1	UNK0	0.000	
5	C005	17.856	-10.264	-4.433	C.2	1	UNK0	0.000	
6	C006	17.748	-9.407	-3.339	C.2	1	UNK0	0.000	
7	C007	16.399	-8.803	-3.059	C.3	1	UNK0	0.000	
8	O008	15.830	-8.336	-4.252	 O	1	UNK0	0.000	
9	C009	15.511	-9.867	-2.442	C.3	1	UNK0	0.000	
10	N010	14.190	-9.408	-2.131	N.pl3	1	UNK0	0.000	
11	C011	14.021	-8.359	-1.192	C.2	1	UNK0	0.000	
12	N012	15.061	-7.781	-0.565	N.2	1	UNK0	0.000	
13	C013	14.940	-6.787	0.328	C.2	1	UNK0	0.000	
14	N014	13.693	-6.330	0.624	N.2	1	UNK0	0.000	
15	C015	12.591	-6.845	0.049	C.2	1	UNK0	0.000	
16	C016	11.278	-6.323	0.398	C.2	1	UNK0	0.000	
17	C017	10.100	-6.782	-0.133	C.2	1	UNK0	0.000	
18	C018	8.875	-6.226	0.256	C.2	1	UNK0	0.000	
19	C019	8.810	-5.208	1.177	C.2	1	UNK0	0.000	
20	C020	7.500	-4.622	1.586	C.3	1	UNK0	0.000	
21	C021	7.164	-3.467	0.668	C.3	1	UNK0	0.000	
22	C022	9.981	-4.744	1.712	C.2	1	UNK0	0.000	
23	C023	11.172	-5.292	1.327	C.2	1	UNK0	0.000	
24	C024	12.770	-7.862	-0.860	C.2	1	UNK0	0.000	
25	H025	18.733	-8.468	-1.713	 H	1	UNK0	0.000	
26	H026	20.920	-9.502	-2.236	 H	1	UNK0	0.000	
27	H027	21.166	-11.037	-4.177	 H	1	UNK0	0.000	
28	H028	19.161	-11.482	-5.544	 H	1	UNK0	0.000	
29	H029	16.967	-10.466	-5.045	 H	1	UNK0	0.000	
30	H030	16.540	-7.932	-2.397	 H	1	UNK0	0.000	
31	H031	16.037	-10.293	-1.552	 H	1	UNK0	0.000	
32	H032	15.433	-10.710	-3.179	 H	1	UNK0	0.000	
33	H033	13.342	-9.834	-2.587	 H	1	UNK0	0.000	
34	H034	15.776	-6.321	0.833	 H	1	UNK0	0.000	
35	H035	10.114	-7.581	-0.860	 H	1	UNK0	0.000	
36	H036	7.935	-6.586	-0.162	 H	1	UNK0	0.000	
37	H037	7.544	-4.208	2.614	 H	1	UNK0	0.000	
38	H038	6.680	-5.366	1.486	 H	1	UNK0	0.000	
39	H039	7.568	-2.509	1.104	 H	1	UNK0	0.000	
40	H040	7.537	-3.624	-0.360	 H	1	UNK0	0.000	
41	H041	6.063	-3.343	0.619	 H	1	UNK0	0.000	
42	H042	9.985	-3.940	2.447	 H	1	UNK0	0.000	
43	H043	12.078	-4.916	1.757	 H	1	UNK0	0.000	
44	H044	11.935	-8.319	-1.357	 H	1	UNK0	0.000	
@<TRIPOS>BOND
1 1 2 2
2 1 6 1
3 1 25 1
4 2 3 1
5 2 26 1
6 3 4 2
7 3 27 1
8 4 5 1
9 4 28 1
10 5 6 2
11 5 29 1
12 6 7 1
13 7 8 1
14 7 9 1
15 7 30 1
16 9 10 1
17 9 31 1
18 9 32 1
19 10 11 1
20 10 33 1
21 11 12 2
22 11 24 1
23 12 13 1
24 13 14 2
25 13 34 1
26 14 15 1
27 15 16 1
28 15 24 2
29 16 17 2
30 16 23 1
31 17 18 1
32 17 35 1
33 18 19 2
34 18 36 1
35 19 20 1
36 19 22 1
37 20 21 1
38 20 37 1
39 20 38 1
40 21 39 1
41 21 40 1
42 21 41 1
43 22 23 2
44 22 42 1
45 23 43 1
46 24 44 1
@<TRIPOS>SUBSTRUCTURE
1	UNK0	1	GROUP	1 ****	UNK
