3
  PyMOL2.4          3D                             0

 44 46  0  0  0  0  0  0  0  0999 V2000
   18.8540   -9.1450   -2.5620 C   0  0  0  0  0  0  0  0  0  0  0  0
   20.0730   -9.7200   -2.8530 C   0  0  0  0  0  0  0  0  0  0  0  0
   20.2020  -10.5700   -3.9310 C   0  0  0  0  0  0  0  0  0  0  0  0
   19.0780  -10.8140   -4.6900 C   0  0  0  0  0  0  0  0  0  0  0  0
   17.8560  -10.2640   -4.4330 C   0  0  0  0  0  0  0  0  0  0  0  0
   17.7480   -9.4070   -3.3390 C   0  0  0  0  0  0  0  0  0  0  0  0
   16.3990   -8.8030   -3.0590 C   0  0  0  0  0  0  0  0  0  0  0  0
   15.8300   -8.3360   -4.2520 O   0  5  0  0  0  0  0  0  0  0  0  0
   15.5110   -9.8670   -2.4420 C   0  0  0  0  0  0  0  0  0  0  0  0
   14.1900   -9.4080   -2.1310 N   0  0  0  0  0  0  0  0  0  0  0  0
   14.0210   -8.3590   -1.1920 C   0  0  0  0  0  0  0  0  0  0  0  0
   15.0610   -7.7810   -0.5650 N   0  0  0  0  0  0  0  0  0  0  0  0
   14.9400   -6.7870    0.3280 C   0  0  0  0  0  0  0  0  0  0  0  0
   13.6930   -6.3300    0.6240 N   0  0  0  0  0  0  0  0  0  0  0  0
   12.5910   -6.8450    0.0490 C   0  0  0  0  0  0  0  0  0  0  0  0
   11.2780   -6.3230    0.3980 C   0  0  0  0  0  0  0  0  0  0  0  0
   10.1000   -6.7820   -0.1330 C   0  0  0  0  0  0  0  0  0  0  0  0
    8.8750   -6.2260    0.2560 C   0  0  0  0  0  0  0  0  0  0  0  0
    8.8100   -5.2080    1.1770 C   0  0  0  0  0  0  0  0  0  0  0  0
    7.5000   -4.6220    1.5860 C   0  0  0  0  0  0  0  0  0  0  0  0
    7.1640   -3.4670    0.6680 C   0  0  0  0  0  0  0  0  0  0  0  0
    9.9810   -4.7440    1.7120 C   0  0  0  0  0  0  0  0  0  0  0  0
   11.1720   -5.2920    1.3270 C   0  0  0  0  0  0  0  0  0  0  0  0
   12.7700   -7.8620   -0.8600 C   0  0  0  0  0  0  0  0  0  0  0  0
   18.7330   -8.4680   -1.7130 H   0  0  0  0  0  0  0  0  0  0  0  0
   20.9200   -9.5020   -2.2360 H   0  0  0  0  0  0  0  0  0  0  0  0
   21.1660  -11.0370   -4.1770 H   0  0  0  0  0  0  0  0  0  0  0  0
   19.1610  -11.4820   -5.5440 H   0  0  0  0  0  0  0  0  0  0  0  0
   16.9670  -10.4660   -5.0450 H   0  0  0  0  0  0  0  0  0  0  0  0
   16.5400   -7.9320   -2.3970 H   0  0  0  0  0  0  0  0  0  0  0  0
   16.0370  -10.2930   -1.5520 H   0  0  0  0  0  0  0  0  0  0  0  0
   15.4330  -10.7100   -3.1790 H   0  0  0  0  0  0  0  0  0  0  0  0
   13.3420   -9.8340   -2.5870 H   0  0  0  0  0  0  0  0  0  0  0  0
   15.7760   -6.3210    0.8330 H   0  0  0  0  0  0  0  0  0  0  0  0
   10.1140   -7.5810   -0.8600 H   0  0  0  0  0  0  0  0  0  0  0  0
    7.9350   -6.5860   -0.1620 H   0  0  0  0  0  0  0  0  0  0  0  0
    7.5440   -4.2080    2.6140 H   0  0  0  0  0  0  0  0  0  0  0  0
    6.6800   -5.3660    1.4860 H   0  0  0  0  0  0  0  0  0  0  0  0
    7.5680   -2.5090    1.1040 H   0  0  0  0  0  0  0  0  0  0  0  0
    7.5370   -3.6240   -0.3600 H   0  0  0  0  0  0  0  0  0  0  0  0
    6.0630   -3.3430    0.6190 H   0  0  0  0  0  0  0  0  0  0  0  0
    9.9850   -3.9400    2.4470 H   0  0  0  0  0  0  0  0  0  0  0  0
   12.0780   -4.9160    1.7570 H   0  0  0  0  0  0  0  0  0  0  0  0
   11.9350   -8.3190   -1.3570 H   0  0  0  0  0  0  0  0  0  0  0  0
  1  2  2  0  0  0  0
  1  6  1  0  0  0  0
  1 25  1  0  0  0  0
  2  3  1  0  0  0  0
  2 26  1  0  0  0  0
  3  4  2  0  0  0  0
  3 27  1  0  0  0  0
  4  5  1  0  0  0  0
  4 28  1  0  0  0  0
  5  6  2  0  0  0  0
  5 29  1  0  0  0  0
  6  7  1  0  0  0  0
  7  8  1  0  0  0  0
  7  9  1  0  0  0  0
  7 30  1  0  0  0  0
  9 10  1  0  0  0  0
  9 31  1  0  0  0  0
  9 32  1  0  0  0  0
 10 11  1  0  0  0  0
 10 33  1  0  0  0  0
 11 12  2  0  0  0  0
 11 24  1  0  0  0  0
 12 13  1  0  0  0  0
 13 14  2  0  0  0  0
 13 34  1  0  0  0  0
 14 15  1  0  0  0  0
 15 16  1  0  0  0  0
 15 24  2  0  0  0  0
 16 17  2  0  0  0  0
 16 23  1  0  0  0  0
 17 18  1  0  0  0  0
 17 35  1  0  0  0  0
 18 19  2  0  0  0  0
 18 36  1  0  0  0  0
 19 20  1  0  0  0  0
 19 22  1  0  0  0  0
 20 21  1  0  0  0  0
 20 37  1  0  0  0  0
 20 38  1  0  0  0  0
 21 39  1  0  0  0  0
 21 40  1  0  0  0  0
 21 41  1  0  0  0  0
 22 23  2  0  0  0  0
 22 42  1  0  0  0  0
 23 43  1  0  0  0  0
 24 44  1  0  0  0  0
M  END
$$$$
