# created with PyMOL 2.4.2
@<TRIPOS>MOLECULE
4
47 49 1                 
SMALL
USER_CHARGES
@<TRIPOS>ATOM
1	C001	17.916	-10.308	-4.457	C.2	1	UNK0	0.000	
2	C002	19.185	-10.778	-4.744	C.2	1	UNK0	0.000	
3	C003	20.272	-10.406	-3.986	C.2	1	UNK0	0.000	
4	C004	20.054	-9.550	-2.932	C.2	1	UNK0	0.000	
5	C005	18.782	-9.088	-2.656	C.2	1	UNK0	0.000	
6	C006	17.682	-9.450	-3.403	C.2	1	UNK0	0.000	
7	C007	16.351	-8.912	-3.043	C.3	1	UNK0	0.000	
8	O008	15.745	-8.507	-4.255	 O	1	UNK0	0.000	
9	C009	15.452	-9.929	-2.428	C.3	1	UNK0	0.000	
10	N010	14.169	-9.379	-2.091	N.pl3	1	UNK0	0.000	
11	C011	14.014	-8.356	-1.124	C.2	1	UNK0	0.000	
12	N012	15.091	-7.892	-0.466	N.2	1	UNK0	0.000	
13	C013	14.919	-6.924	0.443	C.2	1	UNK0	0.000	
14	N014	13.704	-6.420	0.700	N.2	1	UNK0	0.000	
15	C015	12.576	-6.846	0.069	C.2	1	UNK0	0.000	
16	C016	11.280	-6.266	0.386	C.2	1	UNK0	0.000	
17	C017	11.213	-5.273	1.340	C.2	1	UNK0	0.000	
18	C018	10.028	-4.673	1.698	C.2	1	UNK0	0.000	
19	C019	8.867	-5.077	1.082	C.2	1	UNK0	0.000	
20	C020	7.588	-4.425	1.472	C.3	1	UNK0	0.000	
21	C021	6.716	-5.524	2.082	C.3	1	UNK0	0.000	
22	C022	6.863	-3.903	0.265	C.3	1	UNK0	0.000	
23	C023	8.882	-6.070	0.118	C.2	1	UNK0	0.000	
24	C024	10.104	-6.644	-0.207	C.2	1	UNK0	0.000	
25	C025	12.736	-7.840	-0.867	C.2	1	UNK0	0.000	
26	H026	17.062	-10.615	-5.071	 H	1	UNK0	0.000	
27	H027	19.335	-11.446	-5.573	 H	1	UNK0	0.000	
28	H028	21.278	-10.769	-4.203	 H	1	UNK0	0.000	
29	H029	20.921	-9.265	-2.343	 H	1	UNK0	0.000	
30	H030	18.652	-8.419	-1.821	 H	1	UNK0	0.000	
31	H031	16.417	-8.030	-2.389	 H	1	UNK0	0.000	
32	H032	15.891	-10.311	-1.459	 H	1	UNK0	0.000	
33	H033	15.349	-10.841	-3.053	 H	1	UNK0	0.000	
34	H034	13.324	-9.742	-2.570	 H	1	UNK0	0.000	
35	H035	15.811	-6.555	0.973	 H	1	UNK0	0.000	
36	H036	12.124	-4.956	1.824	 H	1	UNK0	0.000	
37	H037	9.972	-3.900	2.440	 H	1	UNK0	0.000	
38	H038	7.767	-3.670	2.240	 H	1	UNK0	0.000	
39	H039	6.910	-6.464	1.547	 H	1	UNK0	0.000	
40	H040	6.900	-5.590	3.179	 H	1	UNK0	0.000	
41	H041	5.668	-5.244	1.943	 H	1	UNK0	0.000	
42	H042	6.163	-3.109	0.623	 H	1	UNK0	0.000	
43	H043	6.261	-4.722	-0.157	 H	1	UNK0	0.000	
44	H044	7.538	-3.441	-0.481	 H	1	UNK0	0.000	
45	H045	7.951	-6.371	-0.354	 H	1	UNK0	0.000	
46	H046	10.104	-7.416	-0.958	 H	1	UNK0	0.000	
47	H047	11.890	-8.236	-1.415	 H	1	UNK0	0.000	
@<TRIPOS>BOND
1 1 2 2
2 1 6 1
3 1 26 1
4 2 3 1
5 2 27 1
6 3 4 2
7 3 28 1
8 4 5 1
9 4 29 1
10 5 6 2
11 5 30 1
12 6 7 1
13 7 8 1
14 7 9 1
15 7 31 1
16 9 10 1
17 9 32 1
18 9 33 1
19 10 11 1
20 10 34 1
21 11 12 2
22 11 25 1
23 12 13 1
24 13 14 2
25 13 35 1
26 14 15 1
27 15 16 1
28 15 25 2
29 16 17 2
30 16 24 1
31 17 18 1
32 17 36 1
33 18 19 2
34 18 37 1
35 19 20 1
36 19 23 1
37 20 21 1
38 20 22 1
39 20 38 1
40 21 39 1
41 21 40 1
42 21 41 1
43 22 42 1
44 22 43 1
45 22 44 1
46 23 24 2
47 23 45 1
48 24 46 1
49 25 47 1
@<TRIPOS>SUBSTRUCTURE
1	UNK0	1	GROUP	1 ****	UNK
