# created with PyMOL 2.4.2
@<TRIPOS>MOLECULE
5
50 52 1                 
SMALL
USER_CHARGES
@<TRIPOS>ATOM
1	C001	18.829	-9.212	-2.603	C.2	1	UNK0	0.000	
2	C002	20.075	-9.724	-2.978	C.2	1	UNK0	0.000	
3	C003	20.236	-10.477	-4.121	C.2	1	UNK0	0.000	
4	C004	19.119	-10.714	-4.893	C.2	1	UNK0	0.000	
5	C005	17.887	-10.207	-4.521	C.2	1	UNK0	0.000	
6	C006	17.716	-9.453	-3.380	C.2	1	UNK0	0.000	
7	C007	16.380	-8.912	-2.994	C.3	1	UNK0	0.000	
8	O008	15.734	-8.355	-4.113	 O	1	UNK0	0.000	
9	C009	15.503	-9.974	-2.387	C.3	1	UNK0	0.000	
10	N010	14.233	-9.379	-2.042	N.pl3	1	UNK0	0.000	
11	C011	14.029	-8.359	-1.100	C.2	1	UNK0	0.000	
12	N012	15.064	-7.872	-0.409	N.2	1	UNK0	0.000	
13	C013	14.900	-6.900	0.494	C.2	1	UNK0	0.000	
14	N014	13.681	-6.412	0.705	N.2	1	UNK0	0.000	
15	C015	12.579	-6.848	0.049	C.2	1	UNK0	0.000	
16	C016	11.284	-6.252	0.347	C.2	1	UNK0	0.000	
17	C017	10.118	-6.636	-0.272	C.2	1	UNK0	0.000	
18	C018	8.896	-6.032	0.049	C.2	1	UNK0	0.000	
19	C019	8.817	-5.035	0.991	C.2	1	UNK0	0.000	
20	C020	7.538	-4.372	1.356	C.3	1	UNK0	0.000	
21	C021	6.883	-5.106	2.483	C.3	1	UNK0	0.000	
22	C022	6.604	-4.397	0.163	C.3	1	UNK0	0.000	
23	C023	7.720	-2.926	1.747	C.3	1	UNK0	0.000	
24	C024	9.975	-4.644	1.616	C.2	1	UNK0	0.000	
25	C025	11.180	-5.239	1.301	C.2	1	UNK0	0.000	
26	C026	12.768	-7.841	-0.868	C.2	1	UNK0	0.000	
27	H027	18.717	-8.621	-1.701	 H	1	UNK0	0.000	
28	H028	20.939	-9.526	-2.357	 H	1	UNK0	0.000	
29	H029	21.215	-10.871	-4.403	 H	1	UNK0	0.000	
30	H030	19.197	-11.306	-5.809	 H	1	UNK0	0.000	
31	H031	16.987	-10.382	-5.119	 H	1	UNK0	0.000	
32	H032	16.472	-8.084	-2.266	 H	1	UNK0	0.000	
33	H033	15.382	-10.767	-3.148	 H	1	UNK0	0.000	
34	H034	16.017	-10.392	-1.491	 H	1	UNK0	0.000	
35	H035	13.383	-9.757	-2.556	 H	1	UNK0	0.000	
36	H036	15.723	-6.486	1.069	 H	1	UNK0	0.000	
37	H037	10.147	-7.414	-1.015	 H	1	UNK0	0.000	
38	H038	8.006	-6.356	-0.454	 H	1	UNK0	0.000	
39	H039	6.833	-4.478	3.411	 H	1	UNK0	0.000	
40	H040	5.817	-5.360	2.242	 H	1	UNK0	0.000	
41	H041	7.438	-6.030	2.783	 H	1	UNK0	0.000	
42	H042	5.881	-3.567	0.297	 H	1	UNK0	0.000	
43	H043	7.209	-4.152	-0.727	 H	1	UNK0	0.000	
44	H044	6.059	-5.353	0.061	 H	1	UNK0	0.000	
45	H045	7.713	-2.868	2.852	 H	1	UNK0	0.000	
46	H046	8.714	-2.542	1.431	 H	1	UNK0	0.000	
47	H047	6.891	-2.285	1.366	 H	1	UNK0	0.000	
48	H048	9.954	-3.866	2.361	 H	1	UNK0	0.000	
49	H049	12.119	-4.942	1.787	 H	1	UNK0	0.000	
50	H050	11.947	-8.234	-1.423	 H	1	UNK0	0.000	
@<TRIPOS>BOND
1 1 2 2
2 1 6 1
3 1 27 1
4 2 3 1
5 2 28 1
6 3 4 2
7 3 29 1
8 4 5 1
9 4 30 1
10 5 6 2
11 5 31 1
12 6 7 1
13 7 8 1
14 7 9 1
15 7 32 1
16 9 10 1
17 9 33 1
18 9 34 1
19 10 11 1
20 10 35 1
21 11 12 2
22 11 26 1
23 12 13 1
24 13 14 2
25 13 36 1
26 14 15 1
27 15 16 1
28 15 26 2
29 16 17 2
30 16 25 1
31 17 18 1
32 17 37 1
33 18 19 2
34 18 38 1
35 19 20 1
36 19 24 1
37 20 21 1
38 20 22 1
39 20 23 1
40 21 39 1
41 21 40 1
42 21 41 1
43 22 42 1
44 22 43 1
45 22 44 1
46 23 45 1
47 23 46 1
48 23 47 1
49 24 25 2
50 24 48 1
51 25 49 1
52 26 50 1
@<TRIPOS>SUBSTRUCTURE
1	UNK0	1	GROUP	1 ****	UNK
