@<TRIPOS>MOLECULE
physical_ligands/2/lig.pdb
 42 44 0 0 0
SMALL
GASTEIGER

@<TRIPOS>ATOM
      1 C001       16.3670   -8.9840   -3.1490 C.3     1  LIG1        0.0956
      2 H002       16.4340   -8.0460   -2.5550 H       1  LIG1        0.0659
      3 O003       15.7440   -8.6510   -4.3790 O.3     1  LIG1       -0.3856
      4 H004       15.4680   -9.4500   -4.8270 H       1  LIG1        0.2103
      5 C005       15.5000  -10.0270   -2.3850 C.3     1  LIG1        0.0406
      6 H006       15.3440  -10.9150   -3.0380 H       1  LIG1        0.0490
      7 H007       16.0540  -10.3840   -1.4880 H       1  LIG1        0.0490
      8 N008       14.1610   -9.5450   -1.9370 N.pl3   1  LIG1       -0.3262
      9 H009       13.3790   -9.6650   -2.5750 H       1  LIG1        0.1476
     10 C010       14.0400   -8.5030   -1.0670 C.ar    1  LIG1        0.1225
     11 N011       15.1210   -8.0570   -0.3770 N.ar    1  LIG1       -0.2209
     12 C012       14.9330   -6.9990    0.4570 C.ar    1  LIG1        0.1187
     13 H013       15.7980   -6.6000    0.9940 H       1  LIG1        0.1048
     14 N014       13.7340   -6.4100    0.7060 N.ar    1  LIG1       -0.2353
     15 C015       12.6870   -6.8980    0.0300 C.ar    1  LIG1        0.0760
     16 C016       11.3350   -6.2660    0.3600 C.ar    1  LIG1        0.0005
     17 C017       12.7880   -7.9500   -0.9090 C.ar    1  LIG1        0.0041
     18 H018       11.9480   -8.3390   -1.4550 H       1  LIG1        0.0673
     19 C019       17.7450   -9.5160   -3.3750 C.ar    1  LIG1       -0.0177
     20 C020       20.1240   -9.5190   -2.8640 C.ar    1  LIG1       -0.0614
     21 H021       20.9570   -9.2160   -2.2480 H       1  LIG1        0.0618
     22 C022       20.3600  -10.3140   -3.9890 C.ar    1  LIG1       -0.0617
     23 H023       21.3500  -10.6710   -4.2250 H       1  LIG1        0.0618
     24 C024       19.2990  -10.6760   -4.8140 C.ar    1  LIG1       -0.0614
     25 H025       19.4780  -11.3470   -5.6230 H       1  LIG1        0.0618
     26 C026       10.1450   -6.7120   -0.2790 C.ar    1  LIG1       -0.0523
     27 H027       10.1410   -7.5030   -1.0150 H       1  LIG1        0.0624
     28 C028       11.2010   -5.2340    1.3310 C.ar    1  LIG1       -0.0523
     29 H029       12.0720   -4.8510    1.8480 H       1  LIG1        0.0624
     30 C030       17.9980  -10.2900   -4.5170 C.ar    1  LIG1       -0.0561
     31 H031       17.1770  -10.6080   -5.1460 H       1  LIG1        0.0621
     32 C032       18.8170   -9.1210   -2.5510 C.ar    1  LIG1       -0.0561
     33 H033       18.6310   -8.4730   -1.7090 H       1  LIG1        0.0621
     34 C040        8.9050   -6.1430    0.0220 C.ar    1  LIG1       -0.0582
     35 H041        8.0200   -6.4720   -0.4890 H       1  LIG1        0.0620
     36 C042        8.8070   -5.1540    0.9920 C.ar    1  LIG1       -0.0504
     37 C043        9.9460   -4.7080    1.6470 C.ar    1  LIG1       -0.0582
     38 H044        9.8150   -3.9630    2.4080 H       1  LIG1        0.0620
     39 C045        7.4950   -4.5500    1.3250 C.3     1  LIG1       -0.0397
     40 H046        6.7210   -5.3450    1.3290 H       1  LIG1        0.0278
     41 H047        7.5610   -4.0900    2.3330 H       1  LIG1        0.0278
     42 H048        7.2740   -3.7760    0.5620 H       1  LIG1        0.0278
@<TRIPOS>BOND
     1    25    24    1
     2    31    30    1
     3     4     3    1
     4    24    30   ar
     5    24    22   ar
     6    30    19   ar
     7     3     1    1
     8    23    22    1
     9    22    20   ar
    10    19     1    1
    11    19    32   ar
    12     1     2    1
    13     1     5    1
    14     6     5    1
    15    20    32   ar
    16    20    21    1
    17     9     8    1
    18    32    33    1
    19     5     8    1
    20     5     7    1
    21     8    10    1
    22    18    17    1
    23    10    17   ar
    24    10    11   ar
    25    27    26    1
    26    17    15   ar
    27    35    34    1
    28    11    12   ar
    29    26    34   ar
    30    26    16   ar
    31    34    36   ar
    32    15    16    1
    33    15    14   ar
    34    16    28   ar
    35    12    14   ar
    36    12    13    1
    37    42    39    1
    38    36    39    1
    39    36    37   ar
    40    39    40    1
    41    39    41    1
    42    28    37   ar
    43    28    29    1
    44    37    38    1
