@<TRIPOS>MOLECULE
1_al
 39 41 0 0 0
SMALL
GASTEIGER

@<TRIPOS>ATOM
      1 O001       16.6277   -8.6081   -4.5698 O.3     1  UNL1       -0.3856
      2 C002       17.0684   -9.0368   -3.2693 C.3     1  UNL1        0.0956
      3 C003       16.3209  -10.3299   -2.8737 C.3     1  UNL1        0.0406
      4 N004       14.8484  -10.0586   -2.8210 N.pl3   1  UNL1       -0.3262
      5 C005       14.4466   -9.2951   -1.7407 C.ar    1  UNL1        0.1225
      6 C006       13.2570   -8.5992   -1.8606 C.ar    1  UNL1        0.0041
      7 C007       12.8553   -7.8147   -0.7924 C.ar    1  UNL1        0.0760
      8 C008       11.6034   -7.0274   -0.8005 C.ar    1  UNL1        0.0005
      9 C009       10.8852   -6.8088    0.3905 C.ar    1  UNL1       -0.0526
     10 C010        9.6962   -6.0731    0.4037 C.ar    1  UNL1       -0.0611
     11 C011        9.1996   -5.5325   -0.7779 C.ar    1  UNL1       -0.0617
     12 C012        9.8934   -5.7232   -1.9691 C.ar    1  UNL1       -0.0611
     13 C013       11.0826   -6.4606   -1.9790 C.ar    1  UNL1       -0.0526
     14 N014       13.5935   -7.7326    0.3343 N.ar    1  UNL1       -0.2353
     15 C015       14.7394   -8.4229    0.3442 C.ar    1  UNL1        0.1187
     16 N016       15.2078   -9.1972   -0.6422 N.ar    1  UNL1       -0.2209
     17 C017       18.5722   -9.2096   -3.2728 C.ar    1  UNL1       -0.0177
     18 C018       19.2873   -9.3004   -4.4779 C.ar    1  UNL1       -0.0561
     19 C019       20.6730   -9.4648   -4.4711 C.ar    1  UNL1       -0.0614
     20 C020       21.3600   -9.5421   -3.2617 C.ar    1  UNL1       -0.0617
     21 C021       20.6627   -9.4563   -2.0585 C.ar    1  UNL1       -0.0614
     22 C022       19.2763   -9.2917   -2.0625 C.ar    1  UNL1       -0.0561
     23 H023       17.3237   -8.0234   -4.9183 H       1  UNL1        0.2103
     24 H024       16.7893   -8.2323   -2.5777 H       1  UNL1        0.0659
     25 H025       16.5285  -11.1111   -3.6167 H       1  UNL1        0.0490
     26 H026       16.6705  -10.6720   -1.8916 H       1  UNL1        0.0490
     27 H027       14.3153  -10.1266   -3.7476 H       1  UNL1        0.1476
     28 H028       12.6661   -8.6801   -2.7630 H       1  UNL1        0.0673
     29 H029       11.2559   -7.2206    1.3283 H       1  UNL1        0.0624
     30 H030        9.1639   -5.9228    1.3392 H       1  UNL1        0.0618
     31 H031        8.2775   -4.9577   -0.7690 H       1  UNL1        0.0618
     32 H032        9.5149   -5.2925   -2.8927 H       1  UNL1        0.0618
     33 H033       11.6088   -6.5681   -2.9249 H       1  UNL1        0.0624
     34 H034       15.3483   -8.3484    1.2381 H       1  UNL1        0.1048
     35 H035       18.7649   -9.2427   -5.4314 H       1  UNL1        0.0621
     36 H036       21.2164   -9.5346   -5.4101 H       1  UNL1        0.0618
     37 H037       22.4392   -9.6723   -3.2568 H       1  UNL1        0.0618
     38 H038       21.1992   -9.5202   -1.1150 H       1  UNL1        0.0618
     39 H039       18.7506   -9.2310   -1.1117 H       1  UNL1        0.0621
@<TRIPOS>BOND
     1     1     2    1
     2     1    23    1
     3     2     3    1
     4     2    17    1
     5     2    24    1
     6     3     4    1
     7     3    25    1
     8     3    26    1
     9     4     5    1
    10     4    27    1
    11     5     6   ar
    12     5    16   ar
    13     6     7   ar
    14     6    28    1
    15     7     8    1
    16     7    14   ar
    17     8     9   ar
    18     8    13   ar
    19     9    10   ar
    20     9    29    1
    21    10    11   ar
    22    10    30    1
    23    11    12   ar
    24    11    31    1
    25    12    13   ar
    26    12    32    1
    27    13    33    1
    28    14    15   ar
    29    15    16   ar
    30    15    34    1
    31    17    18   ar
    32    17    22   ar
    33    18    19   ar
    34    18    35    1
    35    19    20   ar
    36    19    36    1
    37    20    21   ar
    38    20    37    1
    39    21    22   ar
    40    21    38    1
    41    22    39    1
