@<TRIPOS>MOLECULE
10_al
 43 45 0 0 0
SMALL
GASTEIGER

@<TRIPOS>ATOM
      1 C001        7.3299   -4.4779    1.1100 C.3     1  UNL1       -0.0135
      2 S002        7.7265   -4.4073   -0.6580 S.3     1  UNL1       -0.1286
      3 C003        9.2116   -5.3929   -0.6681 C.ar    1  UNL1        0.0077
      4 C004       10.3526   -4.9979    0.0303 C.ar    1  UNL1       -0.0477
      5 C005       11.5113   -5.7838   -0.0056 C.ar    1  UNL1       -0.0515
      6 C006       11.5716   -6.9788   -0.7469 C.ar    1  UNL1        0.0006
      7 C007       12.8103   -7.7876   -0.7751 C.ar    1  UNL1        0.0760
      8 C008       13.1776   -8.5688   -1.8567 C.ar    1  UNL1        0.0041
      9 C009       14.3582   -9.2764   -1.7562 C.ar    1  UNL1        0.1225
     10 N010       14.8258  -10.0938   -2.7945 N.pl3   1  UNL1       -0.3262
     11 C011       16.2798  -10.3448   -2.7135 C.3     1  UNL1        0.0406
     12 C012       17.0372   -9.0674   -3.1471 C.3     1  UNL1        0.0956
     13 O013       16.5779   -8.6765   -4.4480 O.3     1  UNL1       -0.3856
     14 C014       18.5350   -9.2827   -3.1374 C.ar    1  UNL1       -0.0177
     15 C015       19.2482   -9.5646   -4.3131 C.ar    1  UNL1       -0.0561
     16 C016       20.6263   -9.7867   -4.2745 C.ar    1  UNL1       -0.0614
     17 C017       21.3080   -9.7426   -3.0605 C.ar    1  UNL1       -0.0617
     18 C018       20.6141   -9.4655   -1.8841 C.ar    1  UNL1       -0.0614
     19 C019       19.2376   -9.2333   -1.9212 C.ar    1  UNL1       -0.0561
     20 N020       15.1483   -9.2087   -0.6810 N.ar    1  UNL1       -0.2209
     21 C021       14.7186   -8.4228    0.3140 C.ar    1  UNL1        0.1187
     22 N022       13.5855   -7.7108    0.3278 N.ar    1  UNL1       -0.2353
     23 C023       10.4099   -7.3562   -1.4463 C.ar    1  UNL1       -0.0515
     24 C024        9.2485   -6.5713   -1.4139 C.ar    1  UNL1       -0.0477
     25 H025        7.1847   -5.5142    1.4258 H       1  UNL1        0.0344
     26 H026        8.1208   -4.0195    1.7093 H       1  UNL1        0.0344
     27 H027        6.4007   -3.9294    1.2898 H       1  UNL1        0.0344
     28 H028       10.3629   -4.0723    0.6003 H       1  UNL1        0.0629
     29 H029       12.3862   -5.4467    0.5487 H       1  UNL1        0.0624
     30 H030       12.5918   -8.6010   -2.7640 H       1  UNL1        0.0673
     31 H031       14.6028   -9.5500   -3.6330 H       1  UNL1        0.1476
     32 H032       16.5516  -11.1659   -3.3902 H       1  UNL1        0.0490
     33 H033       16.5636  -10.6284   -1.6912 H       1  UNL1        0.0490
     34 H034       16.7877   -8.2370   -2.4750 H       1  UNL1        0.0659
     35 H035       15.6189   -8.8692   -4.4416 H       1  UNL1        0.2103
     36 H036       18.7332   -9.6004   -5.2717 H       1  UNL1        0.0621
     37 H037       21.1662   -9.9948   -5.1956 H       1  UNL1        0.0618
     38 H038       22.3807   -9.9152   -3.0331 H       1  UNL1        0.0618
     39 H039       21.1468   -9.4198   -0.9376 H       1  UNL1        0.0618
     40 H040       18.7180   -9.0075   -0.9919 H       1  UNL1        0.0621
     41 H041       15.3474   -8.3580    1.1946 H       1  UNL1        0.1048
     42 H042       10.3812   -8.2787   -2.0220 H       1  UNL1        0.0624
     43 H043        8.3726   -6.8948   -1.9742 H       1  UNL1        0.0629
@<TRIPOS>BOND
     1     1     2    1
     2     1    25    1
     3     1    26    1
     4     1    27    1
     5     2     3    1
     6     3     4   ar
     7     4     5   ar
     8     4    28    1
     9     5     6   ar
    10     5    29    1
    11     6     7    1
    12     6    23   ar
    13     7     8   ar
    14     8     9   ar
    15     8    30    1
    16     9    10    1
    17     9    20   ar
    18    10    11    1
    19    10    31    1
    20    11    12    1
    21    11    32    1
    22    11    33    1
    23    12    13    1
    24    12    14    1
    25    12    34    1
    26    13    35    1
    27    14    15   ar
    28    15    16   ar
    29    15    36    1
    30    16    17   ar
    31    16    37    1
    32    17    18   ar
    33    17    38    1
    34    18    19   ar
    35    18    39    1
    36    14    19   ar
    37    19    40    1
    38    20    21   ar
    39    21    22   ar
    40    21    41    1
    41     7    22   ar
    42    23    24   ar
    43    23    42    1
    44     3    24   ar
    45    24    43    1
