@<TRIPOS>MOLECULE
*****
 46 48 0 0 0
SMALL
GASTEIGER

@<TRIPOS>ATOM
      1 C001        8.6898   -2.8977   -2.8137 C.3     1  UNL1       -0.0559
      2 C002        8.2672   -2.8854   -1.3545 C.3     1  UNL1       -0.0045
      3 S003        7.6636   -4.5210   -0.8090 S.3     1  UNL1       -0.1255
      4 C004        9.1816   -5.4555   -0.7905 C.ar    1  UNL1        0.0079
      5 C005       10.2799   -5.0637   -0.0264 C.ar    1  UNL1       -0.0477
      6 C006       11.4529   -5.8291   -0.0292 C.ar    1  UNL1       -0.0515
      7 C007       11.5645   -7.0109   -0.7855 C.ar    1  UNL1        0.0006
      8 C008       12.8175   -7.7993   -0.7745 C.ar    1  UNL1        0.0760
      9 C009       13.2269   -8.5855   -1.8387 C.ar    1  UNL1        0.0041
     10 C010       14.4185   -9.2772   -1.7141 C.ar    1  UNL1        0.1225
     11 N011       14.8561  -10.0422   -2.7975 N.pl3   1  UNL1       -0.3262
     12 C012       16.2936  -10.3432   -2.9229 C.3     1  UNL1        0.0406
     13 C013       17.0958   -9.2182   -3.6292 C.3     1  UNL1        0.0956
     14 O014       16.8238   -9.1656   -5.0317 O.3     1  UNL1       -0.3856
     15 C015       18.5865   -9.4140   -3.4420 C.ar    1  UNL1       -0.0177
     16 C016       19.4050   -9.8122   -4.5106 C.ar    1  UNL1       -0.0561
     17 C017       20.7716  -10.0232   -4.3211 C.ar    1  UNL1       -0.0614
     18 C018       21.3367   -9.8418   -3.0606 C.ar    1  UNL1       -0.0617
     19 C019       20.5371   -9.4472   -1.9900 C.ar    1  UNL1       -0.0614
     20 C020       19.1699   -9.2349   -2.1780 C.ar    1  UNL1       -0.0561
     21 N021       15.1677   -9.1903   -0.6066 N.ar    1  UNL1       -0.2209
     22 C022       14.7031   -8.3953    0.3693 C.ar    1  UNL1        0.1187
     23 N023       13.5641   -7.6964    0.3444 N.ar    1  UNL1       -0.2353
     24 C024       10.4348   -7.4022   -1.5267 C.ar    1  UNL1       -0.0515
     25 C025        9.2601   -6.6375   -1.5275 C.ar    1  UNL1       -0.0477
     26 H026        7.8667   -3.2075   -3.4666 H       1  UNL1        0.0238
     27 H027        9.5418   -3.5629   -2.9867 H       1  UNL1        0.0238
     28 H028        8.9931   -1.8910   -3.1201 H       1  UNL1        0.0238
     29 H029        9.0870   -2.5436   -0.7153 H       1  UNL1        0.0377
     30 H030        7.4430   -2.1760   -1.2260 H       1  UNL1        0.0377
     31 H031       10.2393   -4.1707    0.5918 H       1  UNL1        0.0629
     32 H032       12.2936   -5.4922    0.5762 H       1  UNL1        0.0624
     33 H033       12.6598   -8.6387   -2.7587 H       1  UNL1        0.0673
     34 H034       14.2691  -10.8614   -2.9272 H       1  UNL1        0.1476
     35 H035       16.6645  -10.4626   -1.8974 H       1  UNL1        0.0490
     36 H036       16.4391  -11.3095   -3.4227 H       1  UNL1        0.0490
     37 H037       16.8038   -8.2424   -3.2225 H       1  UNL1        0.0659
     38 H038       15.9018   -9.4789   -5.1385 H       1  UNL1        0.2103
     39 H039       18.9775   -9.9470   -5.5026 H       1  UNL1        0.0621
     40 H040       21.3947  -10.3245   -5.1590 H       1  UNL1        0.0618
     41 H041       22.4015  -10.0032   -2.9144 H       1  UNL1        0.0618
     42 H042       20.9795   -9.3012   -1.0079 H       1  UNL1        0.0618
     43 H043       18.5641   -8.9239   -1.3299 H       1  UNL1        0.0621
     44 H044       15.3079   -8.3149    1.2664 H       1  UNL1        0.1048
     45 H045       10.4384   -8.3240   -2.1036 H       1  UNL1        0.0624
     46 H046        8.4066   -6.9784   -2.1098 H       1  UNL1        0.0629
@<TRIPOS>BOND
     1     1     2    1
     2     1    26    1
     3     1    27    1
     4     1    28    1
     5     2     3    1
     6     2    29    1
     7     2    30    1
     8     3     4    1
     9     4     5   ar
    10     5     6   ar
    11     5    31    1
    12     6     7   ar
    13     6    32    1
    14     7     8    1
    15     7    24   ar
    16     8     9   ar
    17     9    10   ar
    18     9    33    1
    19    10    11    1
    20    10    21   ar
    21    11    12    1
    22    11    34    1
    23    12    13    1
    24    12    35    1
    25    12    36    1
    26    13    14    1
    27    13    15    1
    28    13    37    1
    29    14    38    1
    30    15    16   ar
    31    16    17   ar
    32    16    39    1
    33    17    18   ar
    34    17    40    1
    35    18    19   ar
    36    18    41    1
    37    19    20   ar
    38    19    42    1
    39    15    20   ar
    40    20    43    1
    41    21    22   ar
    42    22    23   ar
    43    22    44    1
    44     8    23   ar
    45    24    25   ar
    46    24    45    1
    47     4    25   ar
    48    25    46    1
