@<TRIPOS>MOLECULE
*****
 43 45 0 0 0
SMALL
GASTEIGER

@<TRIPOS>ATOM
      1 O001       16.6282   -8.7723   -4.8388 O.3     1  UNL1       -0.3856
      2 C002       17.0902   -9.1220   -3.5308 C.3     1  UNL1        0.0956
      3 C003       16.3009  -10.3247   -2.9501 C.3     1  UNL1        0.0406
      4 N004       14.8616  -10.0360   -2.7866 N.pl3   1  UNL1       -0.3262
      5 C005       14.4744   -9.2291   -1.7065 C.ar    1  UNL1        0.1225
      6 C006       13.2807   -8.5361   -1.8051 C.ar    1  UNL1        0.0041
      7 C007       12.8872   -7.7632   -0.7254 C.ar    1  UNL1        0.0760
      8 C008       11.6378   -6.9717   -0.7121 C.ar    1  UNL1        0.0006
      9 C009       10.9398   -6.7534    0.4897 C.ar    1  UNL1       -0.0515
     10 C010        9.7541   -6.0095    0.5269 C.ar    1  UNL1       -0.0474
     11 C011        9.2383   -5.4464   -0.6403 C.ar    1  UNL1        0.0161
     12 S012        7.7190   -4.5225   -0.5682 S.3     1  UNL1       -0.0157
     13 C013        8.3343   -2.8978   -1.0203 C.3     1  UNL1        0.4476
     14 F014        8.7877   -2.8661   -2.2967 F       1  UNL1       -0.1600
     15 F015        7.3533   -1.9676   -0.9255 F       1  UNL1       -0.1600
     16 F016        9.3455   -2.4947   -0.2154 F       1  UNL1       -0.1600
     17 C017        9.9100   -5.6565   -1.8458 C.ar    1  UNL1       -0.0474
     18 C018       11.0962   -6.4025   -1.8785 C.ar    1  UNL1       -0.0515
     19 N019       13.6319   -7.6984    0.3971 N.ar    1  UNL1       -0.2353
     20 C020       14.7572   -8.4195    0.4079 C.ar    1  UNL1        0.1187
     21 N021       15.2109   -9.1966   -0.5878 N.ar    1  UNL1       -0.2209
     22 C022       18.5704   -9.4404   -3.6151 C.ar    1  UNL1       -0.0177
     23 C023       19.4388   -9.0170   -2.5968 C.ar    1  UNL1       -0.0561
     24 C024       20.7976   -9.3353   -2.6434 C.ar    1  UNL1       -0.0614
     25 C025       21.3042  -10.0820   -3.7052 C.ar    1  UNL1       -0.0617
     26 C026       20.4538  -10.5101   -4.7223 C.ar    1  UNL1       -0.0614
     27 C027       19.0951  -10.1934   -4.6769 C.ar    1  UNL1       -0.0561
     28 H028       15.6561   -8.8870   -4.8045 H       1  UNL1        0.2103
     29 H029       16.9449   -8.2354   -2.9018 H       1  UNL1        0.0659
     30 H030       16.4505  -11.2327   -3.5484 H       1  UNL1        0.0490
     31 H031       16.6772  -10.5458   -1.9433 H       1  UNL1        0.0490
     32 H032       14.4805   -9.6410   -3.6435 H       1  UNL1        0.1476
     33 H033       12.6694   -8.6233   -2.6937 H       1  UNL1        0.0673
     34 H034       11.3204   -7.1734    1.4205 H       1  UNL1        0.0624
     35 H035        9.2478   -5.8763    1.4806 H       1  UNL1        0.0629
     36 H036        9.5250   -5.2463   -2.7771 H       1  UNL1        0.0629
     37 H037       11.5983   -6.5169   -2.8368 H       1  UNL1        0.0624
     38 H038       15.3588   -8.3767    1.3096 H       1  UNL1        0.1048
     39 H039       19.0617   -8.4319   -1.7608 H       1  UNL1        0.0621
     40 H040       21.4619   -8.9972   -1.8524 H       1  UNL1        0.0618
     41 H041       22.3626  -10.3254   -3.7435 H       1  UNL1        0.0618
     42 H042       20.8477  -11.0858   -5.5557 H       1  UNL1        0.0618
     43 H043       18.4429  -10.5246   -5.4829 H       1  UNL1        0.0621
@<TRIPOS>BOND
     1     1     2    1
     2     1    28    1
     3     2     3    1
     4     2    22    1
     5     2    29    1
     6     3     4    1
     7     3    30    1
     8     3    31    1
     9     4     5    1
    10     4    32    1
    11     5     6   ar
    12     6     7   ar
    13     6    33    1
    14     7     8    1
    15     7    19   ar
    16     8     9   ar
    17     9    10   ar
    18     9    34    1
    19    10    11   ar
    20    10    35    1
    21    11    12    1
    22    11    17   ar
    23    12    13    1
    24    13    14    1
    25    13    15    1
    26    13    16    1
    27    17    18   ar
    28    17    36    1
    29     8    18   ar
    30    18    37    1
    31    19    20   ar
    32    20    21   ar
    33    20    38    1
    34     5    21   ar
    35    22    23   ar
    36    23    24   ar
    37    23    39    1
    38    24    25   ar
    39    24    40    1
    40    25    26   ar
    41    25    41    1
    42    26    27   ar
    43    26    42    1
    44    22    27   ar
    45    27    43    1
