@<TRIPOS>MOLECULE
13_al
 39 41 0 0 0
SMALL
GASTEIGER

@<TRIPOS>ATOM
      1 CL001       7.4236   -5.1703   -1.0791 Cl      1  UNL1       -0.0835
      2 O002       16.5219   -8.9934   -4.6613 O.3     1  UNL1       -0.3856
      3 C003       17.0779   -8.9748   -3.3401 C.3     1  UNL1        0.0956
      4 C004       16.5518  -10.2056   -2.5593 C.3     1  UNL1        0.0406
      5 N005       15.0742  -10.1965   -2.5581 N.pl3   1  UNL1       -0.3262
      6 C006       14.5270   -9.2802   -1.6519 C.ar    1  UNL1        0.1225
      7 C007       13.2719   -8.7345   -1.8334 C.ar    1  UNL1        0.0041
      8 C008       12.8171   -7.8521   -0.8690 C.ar    1  UNL1        0.0760
      9 C009       11.4938   -7.1932   -0.9373 C.ar    1  UNL1        0.0006
     10 C010       10.7892   -6.8753    0.2410 C.ar    1  UNL1       -0.0512
     11 C011        9.5356   -6.2544    0.2018 C.ar    1  UNL1       -0.0428
     12 C012        8.9632   -5.9341   -1.0237 C.ar    1  UNL1        0.0410
     13 C013        9.6349   -6.2265   -2.2063 C.ar    1  UNL1       -0.0428
     14 C014       10.8891   -6.8484   -2.1617 C.ar    1  UNL1       -0.0512
     15 N015       13.5658   -7.5493    0.2132 N.ar    1  UNL1       -0.2353
     16 C016       14.7613   -8.1452    0.2998 C.ar    1  UNL1        0.1187
     17 N017       15.2829   -9.0027   -0.5855 N.ar    1  UNL1       -0.2209
     18 C018       18.5931   -8.9033   -3.3823 C.ar    1  UNL1       -0.0177
     19 C019       19.3238   -9.2359   -4.5333 C.ar    1  UNL1       -0.0561
     20 C020       20.7194   -9.1849   -4.5332 C.ar    1  UNL1       -0.0614
     21 C021       21.4047   -8.7998   -3.3836 C.ar    1  UNL1       -0.0617
     22 C022       20.6956   -8.4623   -2.2337 C.ar    1  UNL1       -0.0614
     23 C023       19.3002   -8.5127   -2.2324 C.ar    1  UNL1       -0.0561
     24 H024       16.3871   -9.9428   -4.8603 H       1  UNL1        0.2103
     25 H025       16.7090   -8.0596   -2.8618 H       1  UNL1        0.0659
     26 H026       16.9106  -10.1200   -1.5263 H       1  UNL1        0.0490
     27 H027       16.9380  -11.1391   -2.9861 H       1  UNL1        0.0490
     28 H028       14.5478  -10.0031   -3.4764 H       1  UNL1        0.1476
     29 H029       12.6623   -9.0226   -2.6783 H       1  UNL1        0.0673
     30 H030       11.2210   -7.1170    1.2117 H       1  UNL1        0.0625
     31 H031        9.0198   -6.0259    1.1306 H       1  UNL1        0.0632
     32 H032        9.1943   -5.9700   -3.1661 H       1  UNL1        0.0632
     33 H033       11.3943   -7.0423   -3.1054 H       1  UNL1        0.0625
     34 H034       15.3646   -7.9107    1.1699 H       1  UNL1        0.1048
     35 H035       18.8113   -9.5324   -5.4463 H       1  UNL1        0.0621
     36 H036       21.2702   -9.4426   -5.4342 H       1  UNL1        0.0618
     37 H037       22.4907   -8.7588   -3.3861 H       1  UNL1        0.0618
     38 H038       21.2300   -8.1571   -1.3376 H       1  UNL1        0.0618
     39 H039       18.7679   -8.2402   -1.3234 H       1  UNL1        0.0621
@<TRIPOS>BOND
     1     2     3    1
     2     2    24    1
     3     3     4    1
     4     3    18    1
     5     3    25    1
     6     4     5    1
     7     4    26    1
     8     4    27    1
     9     5     6    1
    10     5    28    1
    11     6     7   ar
    12     6    17   ar
    13     7     8   ar
    14     7    29    1
    15     8     9    1
    16     8    15   ar
    17     9    10   ar
    18     9    14   ar
    19    10    11   ar
    20    10    30    1
    21    11    12   ar
    22    11    31    1
    23     1    12    1
    24    12    13   ar
    25    13    14   ar
    26    13    32    1
    27    14    33    1
    28    15    16   ar
    29    16    17   ar
    30    16    34    1
    31    18    19   ar
    32    18    23   ar
    33    19    20   ar
    34    19    35    1
    35    20    21   ar
    36    20    36    1
    37    21    22   ar
    38    21    37    1
    39    22    23   ar
    40    22    38    1
    41    23    39    1
