@<TRIPOS>MOLECULE
*****
 39 41 0 0 0
SMALL
GASTEIGER

@<TRIPOS>ATOM
      1 O001       16.2889   -7.9848   -3.9659 O.3     1  UNL1       -0.3856
      2 C002       16.9789   -8.6605   -2.9072 C.3     1  UNL1        0.0956
      3 C003       16.4250  -10.0988   -2.7862 C.3     1  UNL1        0.0406
      4 N004       14.9502  -10.0472   -2.7642 N.pl3   1  UNL1       -0.3262
      5 C005       14.4313   -9.2529   -1.7355 C.ar    1  UNL1        0.1225
      6 C006       13.2444   -8.5587   -1.8640 C.ar    1  UNL1        0.0041
      7 C007       12.8380   -7.7932   -0.7847 C.ar    1  UNL1        0.0760
      8 C008       11.5780   -7.0172   -0.7772 C.ar    1  UNL1        0.0007
      9 C009       10.4263   -7.4536   -1.4636 C.ar    1  UNL1       -0.0499
     10 C010        9.2448   -6.7038   -1.4494 C.ar    1  UNL1       -0.0258
     11 C011        9.1989   -5.5094   -0.7448 C.ar    1  UNL1        0.1234
     12 F012        8.0670   -4.7932   -0.7315 F       1  UNL1       -0.2055
     13 C013       10.3071   -5.0540   -0.0465 C.ar    1  UNL1       -0.0258
     14 C014       11.4850   -5.8058   -0.0606 C.ar    1  UNL1       -0.0499
     15 N015       13.5835   -7.7096    0.3384 N.ar    1  UNL1       -0.2353
     16 C016       14.7230   -8.4102    0.3534 C.ar    1  UNL1        0.1187
     17 N017       15.1864   -9.1868   -0.6341 N.ar    1  UNL1       -0.2209
     18 C018       18.4710   -8.6618   -3.1540 C.ar    1  UNL1       -0.0177
     19 C019       19.3589   -8.6042   -2.0680 C.ar    1  UNL1       -0.0561
     20 C020       20.7394   -8.6432   -2.2726 C.ar    1  UNL1       -0.0614
     21 C021       21.2497   -8.7417   -3.5653 C.ar    1  UNL1       -0.0617
     22 C022       20.3807   -8.8041   -4.6530 C.ar    1  UNL1       -0.0614
     23 C023       19.0002   -8.7662   -4.4477 C.ar    1  UNL1       -0.0561
     24 H024       15.3631   -8.2916   -3.8957 H       1  UNL1        0.2103
     25 H025       16.7597   -8.0970   -1.9925 H       1  UNL1        0.0659
     26 H026       16.8088  -10.5795   -1.8785 H       1  UNL1        0.0490
     27 H027       16.7579  -10.6796   -3.6542 H       1  UNL1        0.0490
     28 H028       14.5867   -9.5965   -3.6073 H       1  UNL1        0.1476
     29 H029       12.6805   -8.5893   -2.7859 H       1  UNL1        0.0673
     30 H030       10.4275   -8.3954   -2.0083 H       1  UNL1        0.0625
     31 H031        8.3626   -7.0487   -1.9798 H       1  UNL1        0.0646
     32 H032       10.2525   -4.1214    0.5056 H       1  UNL1        0.0646
     33 H033       12.3480   -5.4368    0.4930 H       1  UNL1        0.0625
     34 H034       15.3290   -8.3418    1.2501 H       1  UNL1        0.1048
     35 H035       18.9821   -8.5223   -1.0507 H       1  UNL1        0.0621
     36 H036       21.4173   -8.5904   -1.4242 H       1  UNL1        0.0618
     37 H037       22.3242   -8.7676   -3.7255 H       1  UNL1        0.0618
     38 H038       20.7766   -8.8754   -5.6620 H       1  UNL1        0.0618
     39 H039       18.3341   -8.8047   -5.3089 H       1  UNL1        0.0621
@<TRIPOS>BOND
     1     1     2    1
     2     1    24    1
     3     2     3    1
     4     2    18    1
     5     2    25    1
     6     3     4    1
     7     3    26    1
     8     3    27    1
     9     4     5    1
    10     4    28    1
    11     5     6   ar
    12     6     7   ar
    13     6    29    1
    14     7     8    1
    15     7    15   ar
    16     8     9   ar
    17     9    10   ar
    18     9    30    1
    19    10    11   ar
    20    10    31    1
    21    11    12    1
    22    11    13   ar
    23    13    14   ar
    24    13    32    1
    25     8    14   ar
    26    14    33    1
    27    15    16   ar
    28    16    17   ar
    29    16    34    1
    30     5    17   ar
    31    18    19   ar
    32    19    20   ar
    33    19    35    1
    34    20    21   ar
    35    20    36    1
    36    21    22   ar
    37    21    37    1
    38    22    23   ar
    39    22    38    1
    40    18    23   ar
    41    23    39    1
