@<TRIPOS>MOLECULE
*****
 40 42 0 0 0
SMALL
GASTEIGER

@<TRIPOS>ATOM
      1 N001        6.6574   -4.6061    0.1186 N.1     1  UNL1       -0.1909
      2 C002        7.6785   -5.1381   -0.0278 C.1     1  UNL1        0.0992
      3 C003        8.9391   -5.7948   -0.2135 C.ar    1  UNL1        0.0518
      4 C004        9.5601   -6.4414    0.8552 C.ar    1  UNL1       -0.0437
      5 C005       10.7920   -7.0796    0.6680 C.ar    1  UNL1       -0.0513
      6 C006       11.4340   -7.0952   -0.5855 C.ar    1  UNL1        0.0006
      7 C007       12.7356   -7.7776   -0.7568 C.ar    1  UNL1        0.0760
      8 C008       13.1243   -8.3752   -1.9436 C.ar    1  UNL1        0.0041
      9 C009       14.3690   -8.9776   -1.9871 C.ar    1  UNL1        0.1225
     10 N010       14.7497   -9.6141   -3.1804 N.pl3   1  UNL1       -0.3262
     11 C011       16.1198  -10.1549   -3.2077 C.3     1  UNL1        0.0406
     12 C012       17.1667   -9.0382   -3.4250 C.3     1  UNL1        0.0956
     13 O013       16.8485   -8.3190   -4.6310 O.3     1  UNL1       -0.3856
     14 C014       18.5766   -9.5843   -3.5092 C.ar    1  UNL1       -0.0177
     15 C015       19.4490   -9.4463   -2.4196 C.ar    1  UNL1       -0.0561
     16 C016       20.7473   -9.9553   -2.4816 C.ar    1  UNL1       -0.0614
     17 C017       21.1868  -10.6109   -3.6300 C.ar    1  UNL1       -0.0617
     18 C018       20.3286  -10.7608   -4.7172 C.ar    1  UNL1       -0.0614
     19 C019       19.0302  -10.2529   -4.6575 C.ar    1  UNL1       -0.0561
     20 N020       15.1709   -9.0078   -0.9134 N.ar    1  UNL1       -0.2209
     21 C021       14.7098   -8.4163    0.1955 C.ar    1  UNL1        0.1187
     22 N022       13.5324   -7.7961    0.3319 N.ar    1  UNL1       -0.2353
     23 C023       10.7907   -6.4298   -1.6461 C.ar    1  UNL1       -0.0513
     24 C024        9.5579   -5.7886   -1.4652 C.ar    1  UNL1       -0.0437
     25 H025        9.0981   -6.4552    1.8406 H       1  UNL1        0.0631
     26 H026       11.2576   -7.5765    1.5192 H       1  UNL1        0.0624
     27 H027       12.4760   -8.4037   -2.8092 H       1  UNL1        0.0673
     28 H028       14.6376   -8.9668   -3.9622 H       1  UNL1        0.1476
     29 H029       16.3399  -10.7543   -2.3155 H       1  UNL1        0.0490
     30 H030       16.1551  -10.8478   -4.0578 H       1  UNL1        0.0490
     31 H031       17.1118   -8.2992   -2.6181 H       1  UNL1        0.0659
     32 H032       17.6573   -7.8379   -4.8813 H       1  UNL1        0.2103
     33 H033       19.1216   -8.9435   -1.5113 H       1  UNL1        0.0621
     34 H034       21.4157   -9.8430   -1.6316 H       1  UNL1        0.0618
     35 H035       22.1975  -11.0082   -3.6761 H       1  UNL1        0.0618
     36 H036       20.6698  -11.2761   -5.6115 H       1  UNL1        0.0618
     37 H037       18.3703  -10.3821   -5.5139 H       1  UNL1        0.0621
     38 H038       15.3535   -8.4420    1.0678 H       1  UNL1        0.1048
     39 H039       11.2504   -6.3834   -2.6315 H       1  UNL1        0.0624
     40 H040        9.0920   -5.2816   -2.3084 H       1  UNL1        0.0631
@<TRIPOS>BOND
     1     1     2    3
     2     2     3    1
     3     3     4   ar
     4     4     5   ar
     5     4    25    1
     6     5     6   ar
     7     5    26    1
     8     6     7    1
     9     6    23   ar
    10     7     8   ar
    11     8     9   ar
    12     8    27    1
    13     9    10    1
    14     9    20   ar
    15    10    11    1
    16    10    28    1
    17    11    12    1
    18    11    29    1
    19    11    30    1
    20    12    13    1
    21    12    14    1
    22    12    31    1
    23    13    32    1
    24    14    15   ar
    25    15    16   ar
    26    15    33    1
    27    16    17   ar
    28    16    34    1
    29    17    18   ar
    30    17    35    1
    31    18    19   ar
    32    18    36    1
    33    19    14   ar
    34    19    37    1
    35    20    21   ar
    36    21    22   ar
    37    21    38    1
    38    22     7   ar
    39    23    24   ar
    40    23    39    1
    41    24     3   ar
    42    24    40    1
