@<TRIPOS>MOLECULE
*****
 42 44 0 0 0
SMALL
GASTEIGER

@<TRIPOS>ATOM
      1 C001        9.1880   -4.6625   -2.3663 C.3     1  UNL1       -0.0397
      2 C002        9.7419   -5.5544   -1.2934 C.ar    1  UNL1       -0.0498
      3 C003        9.0971   -5.6600   -0.0586 C.ar    1  UNL1       -0.0588
      4 C004        9.6394   -6.4528    0.9494 C.ar    1  UNL1       -0.0609
      5 C005       10.8347   -7.1414    0.7313 C.ar    1  UNL1       -0.0525
      6 C006       11.5144   -7.0577   -0.4956 C.ar    1  UNL1        0.0008
      7 C007       12.7793   -7.7898   -0.7080 C.ar    1  UNL1        0.0760
      8 C008       13.1179   -8.3636   -1.9264 C.ar    1  UNL1        0.0041
      9 C009       14.3381   -9.0090   -2.0142 C.ar    1  UNL1        0.1225
     10 N010       14.6616   -9.6488   -3.2225 N.pl3   1  UNL1       -0.3262
     11 C011       16.0252  -10.2023   -3.3054 C.3     1  UNL1        0.0406
     12 C012       17.0612   -9.1013   -3.6440 C.3     1  UNL1        0.0956
     13 O013       16.7473   -8.5621   -4.9402 O.3     1  UNL1       -0.3856
     14 C014       18.5136   -9.5386   -3.6305 C.ar    1  UNL1       -0.0177
     15 C015       18.9204  -10.8301   -4.0163 C.ar    1  UNL1       -0.0561
     16 C016       20.2745  -11.1760   -4.0040 C.ar    1  UNL1       -0.0614
     17 C017       21.2387  -10.2363   -3.6268 C.ar    1  UNL1       -0.0617
     18 C018       20.8509   -8.9514   -3.2667 C.ar    1  UNL1       -0.0614
     19 C019       19.4994   -8.6036   -3.2681 C.ar    1  UNL1       -0.0561
     20 N020       15.1663   -9.0906   -0.9570 N.ar    1  UNL1       -0.2209
     21 C021       14.7448   -8.5321    0.1855 C.ar    1  UNL1        0.1187
     22 N022       13.5907   -7.8827    0.3697 N.ar    1  UNL1       -0.2353
     23 C023       10.9492   -6.2428   -1.4957 C.ar    1  UNL1       -0.0496
     24 H024        9.5962   -3.6497   -2.2576 H       1  UNL1        0.0278
     25 H025        8.0936   -4.6158   -2.3063 H       1  UNL1        0.0278
     26 H026        9.4427   -5.0437   -3.3646 H       1  UNL1        0.0278
     27 H027        8.1714   -5.1204    0.1267 H       1  UNL1        0.0620
     28 H028        9.1370   -6.5326    1.9088 H       1  UNL1        0.0618
     29 H029       11.2435   -7.7527    1.5338 H       1  UNL1        0.0624
     30 H030       12.4478   -8.3326   -2.7761 H       1  UNL1        0.0673
     31 H031       14.5054   -9.0160   -4.0129 H       1  UNL1        0.1476
     32 H032       15.9988  -10.9340   -4.1247 H       1  UNL1        0.0490
     33 H033       16.2975  -10.7564   -2.3982 H       1  UNL1        0.0490
     34 H034       16.9428   -8.2765   -2.9325 H       1  UNL1        0.0659
     35 H035       17.5986   -8.4024   -5.3954 H       1  UNL1        0.2103
     36 H036       18.2001  -11.5803   -4.3351 H       1  UNL1        0.0621
     37 H037       20.5772  -12.1828   -4.2917 H       1  UNL1        0.0618
     38 H038       22.2917  -10.5075   -3.6185 H       1  UNL1        0.0618
     39 H039       21.6038   -8.2129   -2.9794 H       1  UNL1        0.0618
     40 H040       19.2175   -7.5924   -2.9782 H       1  UNL1        0.0621
     41 H041       15.4030   -8.6155    1.0445 H       1  UNL1        0.1048
     42 H042       11.4635   -6.1205   -2.4468 H       1  UNL1        0.0627
@<TRIPOS>BOND
     1     1     2    1
     2     1    24    1
     3     1    25    1
     4     1    26    1
     5     2     3   ar
     6     3     4   ar
     7     3    27    1
     8     4     5   ar
     9     4    28    1
    10     5     6   ar
    11     5    29    1
    12     6     7    1
    13     6    23   ar
    14     7     8   ar
    15     8     9   ar
    16     8    30    1
    17     9    10    1
    18     9    20   ar
    19    10    11    1
    20    10    31    1
    21    11    12    1
    22    11    32    1
    23    11    33    1
    24    12    13    1
    25    12    14    1
    26    12    34    1
    27    13    35    1
    28    14    15   ar
    29    15    16   ar
    30    15    36    1
    31    16    17   ar
    32    16    37    1
    33    17    18   ar
    34    17    38    1
    35    18    19   ar
    36    18    39    1
    37    19    14   ar
    38    19    40    1
    39    20    21   ar
    40    21    22   ar
    41    21    41    1
    42    22     7   ar
    43    23     2   ar
    44    23    42    1
