@<TRIPOS>MOLECULE
17_al
 39 41 0 0 0
SMALL
GASTEIGER

@<TRIPOS>ATOM
      1 O001       16.6973   -8.7979   -4.7117 O.3     1  UNL1       -0.3856
      2 C002       17.2138   -8.9456   -3.3821 C.3     1  UNL1        0.0956
      3 C003       16.5154  -10.1610   -2.7054 C.3     1  UNL1        0.0406
      4 N004       15.0385  -10.0803   -2.7275 N.pl3   1  UNL1       -0.3262
      5 C005       14.4848   -9.2761   -1.7292 C.ar    1  UNL1        0.1225
      6 C006       13.2733   -8.6378   -1.8958 C.ar    1  UNL1        0.0041
      7 C007       12.8145   -7.8649   -0.8439 C.ar    1  UNL1        0.0760
      8 C008       11.5334   -7.1280   -0.8855 C.ar    1  UNL1        0.0019
      9 C009       10.8734   -6.9031   -2.1099 C.ar    1  UNL1       -0.0525
     10 C010        9.6593   -6.2119   -2.1740 C.ar    1  UNL1       -0.0598
     11 C011        9.0770   -5.7232   -1.0085 C.ar    1  UNL1       -0.0434
     12 C012        9.7153   -5.9248    0.2110 C.ar    1  UNL1        0.0416
     13 CL013       9.0049   -5.3143    1.6558 Cl      1  UNL1       -0.0835
     14 C014       10.9283   -6.6155    0.2768 C.ar    1  UNL1       -0.0342
     15 N015       13.5309   -7.7294    0.2929 N.ar    1  UNL1       -0.2353
     16 C016       14.6922   -8.3919    0.3513 C.ar    1  UNL1        0.1187
     17 N017       15.2059   -9.1747   -0.6068 N.ar    1  UNL1       -0.2209
     18 C018       18.7366   -8.9495   -3.4123 C.ar    1  UNL1       -0.0177
     19 C019       19.5107   -8.2761   -2.4531 C.ar    1  UNL1       -0.0561
     20 C020       20.9070   -8.2757   -2.5266 C.ar    1  UNL1       -0.0614
     21 C021       21.5546   -8.9325   -3.5687 C.ar    1  UNL1       -0.0617
     22 C022       20.8068   -9.5838   -4.5442 C.ar    1  UNL1       -0.0614
     23 C023       19.4122   -9.5850   -4.4702 C.ar    1  UNL1       -0.0561
     24 H024       17.0021   -9.5829   -5.2088 H       1  UNL1        0.2103
     25 H025       16.9111   -8.0454   -2.8334 H       1  UNL1        0.0659
     26 H026       16.8823  -10.2602   -1.6761 H       1  UNL1        0.0490
     27 H027       16.8029  -11.0845   -3.2198 H       1  UNL1        0.0490
     28 H028       14.7227   -9.6533   -3.6016 H       1  UNL1        0.1476
     29 H029       12.7335   -8.7202   -2.8290 H       1  UNL1        0.0673
     30 H030       11.3114   -7.2753   -3.0360 H       1  UNL1        0.0624
     31 H031        9.1745   -6.0563   -3.1345 H       1  UNL1        0.0618
     32 H032        8.1346   -5.1850   -1.0581 H       1  UNL1        0.0632
     33 H033       11.4077   -6.7333    1.2456 H       1  UNL1        0.0639
     34 H034       15.2707   -8.2873    1.2628 H       1  UNL1        0.1048
     35 H035       19.0491   -7.7374   -1.6292 H       1  UNL1        0.0621
     36 H036       21.4896   -7.7563   -1.7694 H       1  UNL1        0.0618
     37 H037       22.6397   -8.9298   -3.6252 H       1  UNL1        0.0618
     38 H038       21.3061  -10.0883   -5.3674 H       1  UNL1        0.0618
     39 H039       18.8487  -10.0889   -5.2547 H       1  UNL1        0.0621
@<TRIPOS>BOND
     1     1     2    1
     2     1    24    1
     3     2     3    1
     4     2    18    1
     5     2    25    1
     6     3     4    1
     7     3    26    1
     8     3    27    1
     9     4     5    1
    10     4    28    1
    11     5     6   ar
    12     6     7   ar
    13     6    29    1
    14     7     8    1
    15     7    15   ar
    16     8     9   ar
    17     9    10   ar
    18     9    30    1
    19    10    11   ar
    20    10    31    1
    21    11    12   ar
    22    11    32    1
    23    12    13    1
    24    12    14   ar
    25     8    14   ar
    26    14    33    1
    27    15    16   ar
    28    16    17   ar
    29    16    34    1
    30     5    17   ar
    31    18    19   ar
    32    19    20   ar
    33    19    35    1
    34    20    21   ar
    35    20    36    1
    36    21    22   ar
    37    21    37    1
    38    22    23   ar
    39    22    38    1
    40    18    23   ar
    41    23    39    1
