@<TRIPOS>MOLECULE
18_al
 42 44 0 0 0
SMALL
GASTEIGER

@<TRIPOS>ATOM
      1 O001       16.8791   -8.9516   -4.5129 O.3     1  UNL1       -0.3856
      2 C002       17.3125   -9.3419   -3.2010 C.3     1  UNL1        0.0956
      3 C003       16.3995  -10.4658   -2.6601 C.3     1  UNL1        0.0406
      4 N004       14.9832  -10.0698   -2.7978 N.pl3   1  UNL1       -0.3262
      5 C005       14.4934   -9.2998   -1.7215 C.ar    1  UNL1        0.1225
      6 C006       13.2768   -8.6609   -1.8858 C.ar    1  UNL1        0.0041
      7 C007       12.8087   -7.8833   -0.8398 C.ar    1  UNL1        0.0760
      8 C008       11.5232   -7.1535   -0.8921 C.ar    1  UNL1        0.0010
      9 C009       10.9512   -6.7970   -2.1271 C.ar    1  UNL1       -0.0525
     10 C010        9.7377   -6.1084   -2.2013 C.ar    1  UNL1       -0.0606
     11 C011        9.0646   -5.7552   -1.0354 C.ar    1  UNL1       -0.0501
     12 C012        9.5986   -6.0891    0.2152 C.ar    1  UNL1        0.0554
     13 C013        8.8932   -5.6814    1.4851 C.3     1  UNL1        0.4174
     14 F014        9.0980   -6.5577    2.5089 F       1  UNL1       -0.1659
     15 F015        9.3087   -4.4690    1.9431 F       1  UNL1       -0.1659
     16 F016        7.5417   -5.5872    1.3435 F       1  UNL1       -0.1659
     17 C017       10.8271   -6.7763    0.2725 C.ar    1  UNL1       -0.0409
     18 N018       13.5181   -7.7372    0.2981 N.ar    1  UNL1       -0.2353
     19 C019       14.6864   -8.3860    0.3574 C.ar    1  UNL1        0.1187
     20 N020       15.2111   -9.1606   -0.6000 N.ar    1  UNL1       -0.2209
     21 C021       18.7639   -9.7698   -3.2325 C.ar    1  UNL1       -0.0177
     22 C022       19.5883   -9.5250   -2.1225 C.ar    1  UNL1       -0.0561
     23 C023       20.9221   -9.9380   -2.1212 C.ar    1  UNL1       -0.0614
     24 C024       21.4480  -10.6035   -3.2263 C.ar    1  UNL1       -0.0617
     25 C025       20.6411  -10.8573   -4.3332 C.ar    1  UNL1       -0.0614
     26 C026       19.3071  -10.4455   -4.3357 C.ar    1  UNL1       -0.0561
     27 H027       16.0701   -8.4321   -4.3623 H       1  UNL1        0.2103
     28 H028       17.2179   -8.4488   -2.5698 H       1  UNL1        0.0659
     29 H029       16.6654  -10.6529   -1.6120 H       1  UNL1        0.0490
     30 H030       16.5619  -11.3896   -3.2306 H       1  UNL1        0.0490
     31 H031       14.4040  -10.9056   -2.8689 H       1  UNL1        0.1476
     32 H032       12.7336   -8.7503   -2.8170 H       1  UNL1        0.0673
     33 H033       11.4598   -7.0602   -3.0542 H       1  UNL1        0.0624
     34 H034        9.3240   -5.8465   -3.1724 H       1  UNL1        0.0618
     35 H035        8.1221   -5.2138   -1.1056 H       1  UNL1        0.0623
     36 H036       11.2472   -7.0003    1.2529 H       1  UNL1        0.0630
     37 H037       15.2646   -8.2735    1.2680 H       1  UNL1        0.1048
     38 H038       19.1961   -9.0090   -1.2485 H       1  UNL1        0.0621
     39 H039       21.5513   -9.7400   -1.2572 H       1  UNL1        0.0618
     40 H040       22.4865  -10.9236   -3.2260 H       1  UNL1        0.0618
     41 H041       21.0493  -11.3747   -5.1974 H       1  UNL1        0.0618
     42 H042       18.6904  -10.6492   -5.2090 H       1  UNL1        0.0621
@<TRIPOS>BOND
     1     1     2    1
     2     1    27    1
     3     2     3    1
     4     2    21    1
     5     2    28    1
     6     3     4    1
     7     3    29    1
     8     3    30    1
     9     4     5    1
    10     4    31    1
    11     5     6   ar
    12     6     7   ar
    13     6    32    1
    14     7     8    1
    15     7    18   ar
    16     8     9   ar
    17     9    10   ar
    18     9    33    1
    19    10    11   ar
    20    10    34    1
    21    11    12   ar
    22    11    35    1
    23    12    13    1
    24    12    17   ar
    25    13    14    1
    26    13    15    1
    27    13    16    1
    28     8    17   ar
    29    17    36    1
    30    18    19   ar
    31    19    20   ar
    32    19    37    1
    33     5    20   ar
    34    21    22   ar
    35    22    23   ar
    36    22    38    1
    37    23    24   ar
    38    23    39    1
    39    24    25   ar
    40    24    40    1
    41    25    26   ar
    42    25    41    1
    43    21    26   ar
    44    26    42    1
