@<TRIPOS>MOLECULE
19_al
 43 45 0 0 0
SMALL
GASTEIGER

@<TRIPOS>ATOM
      1 C001        7.8143   -5.6972    1.8647 C.3     1  UNL1        0.0788
      2 O002        9.1476   -6.1866    1.8060 O.3     1  UNL1       -0.4951
      3 C003        9.6830   -6.3797    0.5619 C.ar    1  UNL1        0.1207
      4 C004        9.0495   -6.1207   -0.6508 C.ar    1  UNL1       -0.0199
      5 C005        9.7169   -6.3673   -1.8506 C.ar    1  UNL1       -0.0577
      6 C006       11.0216   -6.8688   -1.8426 C.ar    1  UNL1       -0.0523
      7 C007       11.6925   -7.1330   -0.6360 C.ar    1  UNL1        0.0040
      8 C008       13.0735   -7.6592   -0.6032 C.ar    1  UNL1        0.0761
      9 C009       13.5022   -8.6953   -1.4147 C.ar    1  UNL1        0.0041
     10 C010       14.8152   -9.1015   -1.2862 C.ar    1  UNL1        0.1225
     11 N011       15.3555  -10.1273   -2.0683 N.pl3   1  UNL1       -0.3262
     12 C012       16.7774   -9.9424   -2.3936 C.3     1  UNL1        0.0406
     13 C013       16.9595   -9.1190   -3.6898 C.3     1  UNL1        0.0956
     14 O014       15.9816   -9.5244   -4.6551 O.3     1  UNL1       -0.3856
     15 C015       18.3440   -9.2496   -4.2947 C.ar    1  UNL1       -0.0177
     16 C016       19.4923   -8.9412   -3.5483 C.ar    1  UNL1       -0.0561
     17 C017       20.7613   -9.0543   -4.1180 C.ar    1  UNL1       -0.0614
     18 C018       20.8975   -9.4747   -5.4392 C.ar    1  UNL1       -0.0617
     19 C019       19.7660   -9.7814   -6.1922 C.ar    1  UNL1       -0.0614
     20 C020       18.4958   -9.6695   -5.6244 C.ar    1  UNL1       -0.0561
     21 N021       15.6661   -8.5158   -0.4371 N.ar    1  UNL1       -0.2209
     22 C022       15.1677   -7.5168    0.3017 C.ar    1  UNL1        0.1187
     23 N023       13.9111   -7.0579    0.2681 N.ar    1  UNL1       -0.2353
     24 C024       10.9897   -6.8828    0.5586 C.ar    1  UNL1       -0.0108
     25 H025        7.5366   -5.6092    2.9195 H       1  UNL1        0.0660
     26 H026        7.1155   -6.3966    1.3939 H       1  UNL1        0.0660
     27 H027        7.7396   -4.7009    1.4168 H       1  UNL1        0.0660
     28 H028        8.0383   -5.7315   -0.6981 H       1  UNL1        0.0654
     29 H029        9.2178   -6.1738   -2.7971 H       1  UNL1        0.0619
     30 H030       11.5000   -7.0675   -2.7990 H       1  UNL1        0.0624
     31 H031       12.8523   -9.1503   -2.1490 H       1  UNL1        0.0673
     32 H032       14.7885  -10.1031   -2.9200 H       1  UNL1        0.1476
     33 H033       17.2646  -10.9145   -2.5429 H       1  UNL1        0.0490
     34 H034       17.3023   -9.4545   -1.5612 H       1  UNL1        0.0490
     35 H035       16.7536   -8.0637   -3.4724 H       1  UNL1        0.0659
     36 H036       16.3049   -9.2243   -5.5233 H       1  UNL1        0.2103
     37 H037       19.4031   -8.6095   -2.5152 H       1  UNL1        0.0621
     38 H038       21.6437   -8.8116   -3.5314 H       1  UNL1        0.0618
     39 H039       21.8858   -9.5598   -5.8835 H       1  UNL1        0.0618
     40 H040       19.8728  -10.1046   -7.2247 H       1  UNL1        0.0618
     41 H041       17.6239   -9.9058   -6.2318 H       1  UNL1        0.0621
     42 H042       15.8473   -7.0332    0.9946 H       1  UNL1        0.1048
     43 H043       11.4717   -7.0810    1.5155 H       1  UNL1        0.0661
@<TRIPOS>BOND
     1     1     2    1
     2     1    25    1
     3     1    26    1
     4     1    27    1
     5     2     3    1
     6     3     4   ar
     7     4     5   ar
     8     4    28    1
     9     5     6   ar
    10     5    29    1
    11     6     7   ar
    12     6    30    1
    13     7     8    1
    14     7    24   ar
    15     8     9   ar
    16     9    10   ar
    17     9    31    1
    18    10    11    1
    19    10    21   ar
    20    11    12    1
    21    11    32    1
    22    12    13    1
    23    12    33    1
    24    12    34    1
    25    13    14    1
    26    13    15    1
    27    13    35    1
    28    14    36    1
    29    15    16   ar
    30    16    17   ar
    31    16    37    1
    32    17    18   ar
    33    17    38    1
    34    18    19   ar
    35    18    39    1
    36    19    20   ar
    37    19    40    1
    38    15    20   ar
    39    20    41    1
    40    21    22   ar
    41    22    23   ar
    42    22    42    1
    43     8    23   ar
    44     3    24   ar
    45    24    43    1
