@<TRIPOS>MOLECULE
2_al
 42 44 0 0 0
SMALL
GASTEIGER

@<TRIPOS>ATOM
      1 C001        7.8763   -4.7481   -0.8013 C.3     1  UNL1       -0.0397
      2 C002        9.1713   -5.5041   -0.7994 C.ar    1  UNL1       -0.0504
      3 C003        9.6779   -6.0413    0.3857 C.ar    1  UNL1       -0.0582
      4 C004       10.8715   -6.7717    0.3794 C.ar    1  UNL1       -0.0523
      5 C005       11.5889   -7.0035   -0.8081 C.ar    1  UNL1        0.0005
      6 C006       12.8448   -7.7840   -0.7905 C.ar    1  UNL1        0.0760
      7 C007       13.2557   -8.5750   -1.8507 C.ar    1  UNL1        0.0041
      8 C008       14.4538   -9.2563   -1.7266 C.ar    1  UNL1        0.1225
      9 N009       14.8582  -10.0802   -2.7877 N.pl3   1  UNL1       -0.3262
     10 C010       16.3056  -10.3126   -2.9664 C.3     1  UNL1        0.0406
     11 C011       17.0537   -9.0575   -3.4879 C.3     1  UNL1        0.0956
     12 O012       16.5366   -8.6241   -4.7492 O.3     1  UNL1       -0.3856
     13 C013       18.5341   -9.3424   -3.6503 C.ar    1  UNL1       -0.0177
     14 C014       19.0278  -10.0137   -4.7798 C.ar    1  UNL1       -0.0561
     15 C015       20.3883  -10.3030   -4.8983 C.ar    1  UNL1       -0.0614
     16 C016       21.2714   -9.9287   -3.8878 C.ar    1  UNL1       -0.0617
     17 C017       20.7961   -9.2631   -2.7596 C.ar    1  UNL1       -0.0614
     18 C018       19.4356   -8.9725   -2.6399 C.ar    1  UNL1       -0.0561
     19 N019       15.1787   -9.1968   -0.6015 N.ar    1  UNL1       -0.2209
     20 C020       14.7080   -8.4046    0.3743 C.ar    1  UNL1        0.1187
     21 N021       13.5777   -7.6924    0.3384 N.ar    1  UNL1       -0.2353
     22 C022       11.0599   -6.4594   -1.9924 C.ar    1  UNL1       -0.0523
     23 C023        9.8659   -5.7272   -1.9906 C.ar    1  UNL1       -0.0582
     24 H024        7.8712   -3.9844   -1.5863 H       1  UNL1        0.0278
     25 H025        7.0418   -5.4357   -0.9706 H       1  UNL1        0.0278
     26 H026        7.7224   -4.2331    0.1529 H       1  UNL1        0.0278
     27 H027        9.1523   -5.8954    1.3267 H       1  UNL1        0.0620
     28 H028       11.2429   -7.1711    1.3223 H       1  UNL1        0.0624
     29 H029       12.6536   -8.6835   -2.7431 H       1  UNL1        0.0673
     30 H030       14.4467   -9.7279   -3.6493 H       1  UNL1        0.1476
     31 H031       16.6913  -10.5707   -1.9720 H       1  UNL1        0.0490
     32 H032       16.4837  -11.1846   -3.6087 H       1  UNL1        0.0490
     33 H033       16.9191   -8.2207   -2.7917 H       1  UNL1        0.0659
     34 H034       15.5677   -8.7541   -4.6849 H       1  UNL1        0.2103
     35 H035       18.3494  -10.3016   -5.5808 H       1  UNL1        0.0621
     36 H036       20.7577  -10.8152   -5.7827 H       1  UNL1        0.0618
     37 H037       22.3309  -10.1510   -3.9826 H       1  UNL1        0.0618
     38 H038       21.4856   -8.9670   -1.9735 H       1  UNL1        0.0618
     39 H039       19.0827   -8.4512   -1.7526 H       1  UNL1        0.0621
     40 H040       15.2993   -8.3401    1.2818 H       1  UNL1        0.1048
     41 H041       11.5788   -6.5823   -2.9400 H       1  UNL1        0.0624
     42 H042        9.4875   -5.3265   -2.9285 H       1  UNL1        0.0620
@<TRIPOS>BOND
     1     1     2    1
     2     1    24    1
     3     1    25    1
     4     1    26    1
     5     2     3   ar
     6     3     4   ar
     7     3    27    1
     8     4     5   ar
     9     4    28    1
    10     5     6    1
    11     5    22   ar
    12     6     7   ar
    13     7     8   ar
    14     7    29    1
    15     8     9    1
    16     8    19   ar
    17     9    10    1
    18     9    30    1
    19    10    11    1
    20    10    31    1
    21    10    32    1
    22    11    12    1
    23    11    13    1
    24    11    33    1
    25    12    34    1
    26    13    14   ar
    27    14    15   ar
    28    14    35    1
    29    15    16   ar
    30    15    36    1
    31    16    17   ar
    32    16    37    1
    33    17    18   ar
    34    17    38    1
    35    13    18   ar
    36    18    39    1
    37    19    20   ar
    38    20    21   ar
    39    20    40    1
    40     6    21   ar
    41    22    23   ar
    42    22    41    1
    43     2    23   ar
    44    23    42    1
