@<TRIPOS>MOLECULE
20_al
 42 44 0 0 0
SMALL
GASTEIGER

@<TRIPOS>ATOM
      1 C001       12.5389   -5.5308    1.2154 C.3     1  UNL1       -0.0391
      2 C002       11.4899   -5.8661    0.1871 C.ar    1  UNL1       -0.0413
      3 C003       10.2959   -5.1225    0.1790 C.ar    1  UNL1       -0.0582
      4 C004        9.2889   -5.3948   -0.7452 C.ar    1  UNL1       -0.0615
      5 C005        9.4557   -6.4193   -1.6688 C.ar    1  UNL1       -0.0611
      6 C006       10.6306   -7.1731   -1.6654 C.ar    1  UNL1       -0.0523
      7 C007       11.6662   -6.9182   -0.7425 C.ar    1  UNL1        0.0034
      8 C008       12.8840   -7.7461   -0.7798 C.ar    1  UNL1        0.0762
      9 C009       13.2181   -8.5006   -1.8885 C.ar    1  UNL1        0.0041
     10 C010       14.3770   -9.2418   -1.8101 C.ar    1  UNL1        0.1225
     11 N011       14.7996  -10.0541   -2.8632 N.pl3   1  UNL1       -0.3262
     12 C012       16.2663  -10.2031   -2.9605 C.3     1  UNL1        0.0406
     13 C013       17.0027   -8.8492   -3.1393 C.3     1  UNL1        0.0956
     14 O014       16.3562   -8.0697   -4.1543 O.3     1  UNL1       -0.3856
     15 C015       18.4598   -9.0641   -3.4904 C.ar    1  UNL1       -0.0177
     16 C016       18.8803   -9.1938   -4.8225 C.ar    1  UNL1       -0.0561
     17 C017       20.2231   -9.4239   -5.1265 C.ar    1  UNL1       -0.0614
     18 C018       21.1620   -9.5311   -4.1029 C.ar    1  UNL1       -0.0617
     19 C019       20.7596   -9.4076   -2.7747 C.ar    1  UNL1       -0.0614
     20 C020       19.4167   -9.1771   -2.4690 C.ar    1  UNL1       -0.0561
     21 N021       15.1541   -9.2593   -0.7194 N.ar    1  UNL1       -0.2209
     22 C022       14.7503   -8.4886    0.3010 C.ar    1  UNL1        0.1187
     23 N023       13.6459   -7.7346    0.3329 N.ar    1  UNL1       -0.2353
     24 H024       12.5313   -6.2728    2.0197 H       1  UNL1        0.0278
     25 H025       12.3559   -4.5474    1.6620 H       1  UNL1        0.0278
     26 H026       13.5339   -5.4893    0.7608 H       1  UNL1        0.0278
     27 H027       10.1452   -4.3212    0.8995 H       1  UNL1        0.0620
     28 H028        8.3729   -4.8097   -0.7386 H       1  UNL1        0.0618
     29 H029        8.6692   -6.6393   -2.3857 H       1  UNL1        0.0618
     30 H030       10.7286   -7.9838   -2.3847 H       1  UNL1        0.0624
     31 H031       12.6164   -8.4892   -2.7875 H       1  UNL1        0.0673
     32 H032       14.4623   -9.6000   -3.7140 H       1  UNL1        0.1476
     33 H033       16.6616  -10.7519   -2.0966 H       1  UNL1        0.0490
     34 H034       16.4507  -10.8350   -3.8384 H       1  UNL1        0.0490
     35 H035       16.9516   -8.2582   -2.2163 H       1  UNL1        0.0659
     36 H036       15.5279   -7.7488   -3.7462 H       1  UNL1        0.2103
     37 H037       18.1588   -9.1074   -5.6331 H       1  UNL1        0.0621
     38 H038       20.5352   -9.5155   -6.1636 H       1  UNL1        0.0618
     39 H039       22.2075   -9.7075   -4.3411 H       1  UNL1        0.0618
     40 H040       21.4931   -9.4882   -1.9768 H       1  UNL1        0.0618
     41 H041       19.1240   -9.0820   -1.4258 H       1  UNL1        0.0621
     42 H042       15.3754   -8.4792    1.1875 H       1  UNL1        0.1048
@<TRIPOS>BOND
     1     1     2    1
     2     1    24    1
     3     1    25    1
     4     1    26    1
     5     2     3   ar
     6     3     4   ar
     7     3    27    1
     8     4     5   ar
     9     4    28    1
    10     5     6   ar
    11     5    29    1
    12     6     7   ar
    13     6    30    1
    14     2     7   ar
    15     7     8    1
    16     8     9   ar
    17     9    10   ar
    18     9    31    1
    19    10    11    1
    20    10    21   ar
    21    11    12    1
    22    11    32    1
    23    12    13    1
    24    12    33    1
    25    12    34    1
    26    13    14    1
    27    13    15    1
    28    13    35    1
    29    14    36    1
    30    15    16   ar
    31    16    17   ar
    32    16    37    1
    33    17    18   ar
    34    17    38    1
    35    18    19   ar
    36    18    39    1
    37    19    20   ar
    38    19    40    1
    39    15    20   ar
    40    20    41    1
    41    21    22   ar
    42    22    23   ar
    43    22    42    1
    44     8    23   ar
