@<TRIPOS>MOLECULE
21_al
 45 47 0 0 0
SMALL
GASTEIGER

@<TRIPOS>ATOM
      1 C001        7.9227   -4.6361   -1.2124 C.3     1  UNL1       -0.0395
      2 C002        9.1878   -5.4393   -1.0855 C.ar    1  UNL1       -0.0475
      3 C003        9.7206   -6.0652   -2.2189 C.ar    1  UNL1       -0.0580
      4 C004       10.8928   -6.8222   -2.1340 C.ar    1  UNL1       -0.0523
      5 C005       11.5785   -6.9785   -0.9194 C.ar    1  UNL1        0.0008
      6 C006       12.8219   -7.7751   -0.8520 C.ar    1  UNL1        0.0760
      7 C007       13.2534   -8.5838   -1.8897 C.ar    1  UNL1        0.0041
      8 C008       14.4294   -9.2901   -1.7134 C.ar    1  UNL1        0.1225
      9 N009       14.8852  -10.0876   -2.7729 N.pl3   1  UNL1       -0.3262
     10 C010       16.3375  -10.2850   -2.8635 C.3     1  UNL1        0.0406
     11 C011       17.1219   -9.0634   -3.4065 C.3     1  UNL1        0.0956
     12 O012       16.5823   -8.6735   -4.6762 O.3     1  UNL1       -0.3856
     13 C013       18.6008   -9.3562   -3.5760 C.ar    1  UNL1       -0.0177
     14 C014       19.0752  -10.1168   -4.6551 C.ar    1  UNL1       -0.0561
     15 C015       20.4348  -10.4091   -4.7765 C.ar    1  UNL1       -0.0614
     16 C016       21.3362   -9.9465   -3.8199 C.ar    1  UNL1       -0.0617
     17 C017       20.8804   -9.1889   -2.7431 C.ar    1  UNL1       -0.0614
     18 C018       19.5213   -8.8949   -2.6210 C.ar    1  UNL1       -0.0561
     19 N019       15.1520   -9.1800   -0.5901 N.ar    1  UNL1       -0.2209
     20 C020       14.6586   -8.3779    0.3626 C.ar    1  UNL1        0.1187
     21 N021       13.5203   -7.6793    0.2986 N.ar    1  UNL1       -0.2353
     22 C022       11.0259   -6.3541    0.2147 C.ar    1  UNL1       -0.0494
     23 C023        9.8460   -5.5875    0.1485 C.ar    1  UNL1       -0.0469
     24 C024        9.3093   -4.9528    1.4030 C.3     1  UNL1       -0.0394
     25 H025        7.1332   -5.0698   -0.5907 H       1  UNL1        0.0278
     26 H026        8.0983   -3.5989   -0.9102 H       1  UNL1        0.0278
     27 H027        7.5584   -4.6200   -2.2451 H       1  UNL1        0.0278
     28 H028        9.2265   -5.9732   -3.1836 H       1  UNL1        0.0620
     29 H029       11.2753   -7.2958   -3.0370 H       1  UNL1        0.0624
     30 H030       12.6933   -8.6749   -2.8109 H       1  UNL1        0.0673
     31 H031       14.3902  -10.9778   -2.7876 H       1  UNL1        0.1476
     32 H032       16.7011  -10.5230   -1.8553 H       1  UNL1        0.0490
     33 H033       16.5732  -11.1785   -3.4569 H       1  UNL1        0.0490
     34 H034       17.0070   -8.1964   -2.7470 H       1  UNL1        0.0659
     35 H035       15.7133   -8.2771   -4.4928 H       1  UNL1        0.2103
     36 H036       18.3826  -10.4760   -5.4138 H       1  UNL1        0.0621
     37 H037       20.7896  -10.9931   -5.6214 H       1  UNL1        0.0618
     38 H038       22.3949  -10.1711   -3.9178 H       1  UNL1        0.0618
     39 H039       21.5842   -8.8224   -2.0003 H       1  UNL1        0.0618
     40 H040       19.1826   -8.3008   -1.7741 H       1  UNL1        0.0621
     41 H041       15.2371   -8.2874    1.2753 H       1  UNL1        0.1048
     42 H042       11.5080   -6.4791    1.1829 H       1  UNL1        0.0627
     43 H043        8.3133   -5.3453    1.6310 H       1  UNL1        0.0278
     44 H044        9.9512   -5.1600    2.2659 H       1  UNL1        0.0278
     45 H045        9.2568   -3.8657    1.2872 H       1  UNL1        0.0278
@<TRIPOS>BOND
     1     1     2    1
     2     1    25    1
     3     1    26    1
     4     1    27    1
     5     2     3   ar
     6     3     4   ar
     7     3    28    1
     8     4     5   ar
     9     4    29    1
    10     5     6    1
    11     5    22   ar
    12     6     7   ar
    13     7     8   ar
    14     7    30    1
    15     8     9    1
    16     8    19   ar
    17     9    10    1
    18     9    31    1
    19    10    11    1
    20    10    32    1
    21    10    33    1
    22    11    12    1
    23    11    13    1
    24    11    34    1
    25    12    35    1
    26    13    14   ar
    27    14    15   ar
    28    14    36    1
    29    15    16   ar
    30    15    37    1
    31    16    17   ar
    32    16    38    1
    33    17    18   ar
    34    17    39    1
    35    13    18   ar
    36    18    40    1
    37    19    20   ar
    38    20    21   ar
    39    20    41    1
    40     6    21   ar
    41    22    23   ar
    42    22    42    1
    43     2    23   ar
    44    23    24    1
    45    24    43    1
    46    24    44    1
    47    24    45    1
