@<TRIPOS>MOLECULE
*****
 46 48 0 0 0
SMALL
GASTEIGER

@<TRIPOS>ATOM
      1 C001        7.0596   -4.5175   -0.9327 C.3     1  UNL1        0.0788
      2 O002        7.7196   -5.1904    0.1312 O.3     1  UNL1       -0.4948
      3 C003        8.9205   -5.7869   -0.1490 C.ar    1  UNL1        0.1230
      4 C004        9.5438   -5.7833   -1.3973 C.ar    1  UNL1       -0.0191
      5 C005       10.7770   -6.4245   -1.5808 C.ar    1  UNL1       -0.0491
      6 C006       11.4234   -7.0905   -0.5270 C.ar    1  UNL1        0.0010
      7 C007       12.7231   -7.7739   -0.7049 C.ar    1  UNL1        0.0760
      8 C008       13.1006   -8.3763   -1.8932 C.ar    1  UNL1        0.0041
      9 C009       14.3450   -8.9782   -1.9472 C.ar    1  UNL1        0.1225
     10 N010       14.7151   -9.6172   -3.1430 N.pl3   1  UNL1       -0.3262
     11 C011       16.0856  -10.1556   -3.1819 C.3     1  UNL1        0.0406
     12 C012       17.1289   -9.0378   -3.4098 C.3     1  UNL1        0.0956
     13 O013       16.8038   -8.3250   -4.6179 O.3     1  UNL1       -0.3856
     14 C014       18.5394   -9.5820   -3.4992 C.ar    1  UNL1       -0.0177
     15 C015       19.4153   -9.4425   -2.4127 C.ar    1  UNL1       -0.0561
     16 C016       20.7143   -9.9495   -2.4792 C.ar    1  UNL1       -0.0614
     17 C017       21.1507  -10.6043   -3.6292 C.ar    1  UNL1       -0.0617
     18 C018       20.2890  -10.7559   -4.7133 C.ar    1  UNL1       -0.0614
     19 C019       18.9899  -10.2500   -4.6490 C.ar    1  UNL1       -0.0561
     20 N020       15.1581   -9.0046   -0.8818 N.ar    1  UNL1       -0.2209
     21 C021       14.7068   -8.4097    0.2297 C.ar    1  UNL1        0.1187
     22 N022       13.5312   -7.7889    0.3757 N.ar    1  UNL1       -0.2353
     23 C023       10.7837   -7.0753    0.7257 C.ar    1  UNL1       -0.0462
     24 C024        9.5448   -6.4384    0.9255 C.ar    1  UNL1       -0.0082
     25 C025        8.9100   -6.4577    2.2889 C.3     1  UNL1       -0.0362
     26 H026        6.8013   -5.2116   -1.7391 H       1  UNL1        0.0660
     27 H027        6.1261   -4.1044   -0.5385 H       1  UNL1        0.0660
     28 H028        7.6613   -3.6820   -1.3052 H       1  UNL1        0.0660
     29 H029        9.1027   -5.2854   -2.2542 H       1  UNL1        0.0654
     30 H030       11.2333   -6.3757   -2.5670 H       1  UNL1        0.0625
     31 H031       12.4426   -8.4075   -2.7515 H       1  UNL1        0.0673
     32 H032       14.5931   -8.9716   -3.9243 H       1  UNL1        0.1476
     33 H033       16.3141  -10.7535   -2.2907 H       1  UNL1        0.0490
     34 H034       16.1145  -10.8498   -4.0310 H       1  UNL1        0.0490
     35 H035       17.0774   -8.2950   -2.6062 H       1  UNL1        0.0659
     36 H036       17.6073   -7.8348   -4.8673 H       1  UNL1        0.2103
     37 H037       19.0900   -8.9409   -1.5031 H       1  UNL1        0.0621
     38 H038       21.3855   -9.8360   -1.6315 H       1  UNL1        0.0618
     39 H039       22.1619  -11.0001   -3.6787 H       1  UNL1        0.0618
     40 H040       20.6277  -11.2708   -5.6088 H       1  UNL1        0.0618
     41 H041       18.3270  -10.3803   -5.5027 H       1  UNL1        0.0621
     42 H042       15.3583   -8.4327    1.0963 H       1  UNL1        0.1048
     43 H043       11.2621   -7.5764    1.5672 H       1  UNL1        0.0628
     44 H044        9.5100   -7.0296    3.0045 H       1  UNL1        0.0279
     45 H045        7.9208   -6.9245    2.2405 H       1  UNL1        0.0279
     46 H046        8.8134   -5.4382    2.6755 H       1  UNL1        0.0279
@<TRIPOS>BOND
     1     1     2    1
     2     1    26    1
     3     1    27    1
     4     1    28    1
     5     2     3    1
     6     3     4   ar
     7     4     5   ar
     8     4    29    1
     9     5     6   ar
    10     5    30    1
    11     6     7    1
    12     6    23   ar
    13     7     8   ar
    14     8     9   ar
    15     8    31    1
    16     9    10    1
    17     9    20   ar
    18    10    11    1
    19    10    32    1
    20    11    12    1
    21    11    33    1
    22    11    34    1
    23    12    13    1
    24    12    14    1
    25    12    35    1
    26    13    36    1
    27    14    15   ar
    28    15    16   ar
    29    15    37    1
    30    16    17   ar
    31    16    38    1
    32    17    18   ar
    33    17    39    1
    34    18    19   ar
    35    18    40    1
    36    19    14   ar
    37    19    41    1
    38    20    21   ar
    39    21    22   ar
    40    21    42    1
    41    22     7   ar
    42    23    24   ar
    43    23    43    1
    44    24    25    1
    45    24     3   ar
    46    25    44    1
    47    25    45    1
    48    25    46    1
