@<TRIPOS>MOLECULE
23_al
 43 45 0 0 0
SMALL
GASTEIGER

@<TRIPOS>ATOM
      1 O001       16.7364   -8.8853   -4.7484 O.3     1  UNL1       -0.3856
      2 C002       17.1534   -9.2606   -3.4294 C.3     1  UNL1        0.0956
      3 C003       16.2221  -10.3755   -2.8893 C.3     1  UNL1        0.0406
      4 N004       14.8002  -10.0108   -2.8322 N.pl3   1  UNL1       -0.3262
      5 C005       14.3932   -9.2568   -1.7229 C.ar    1  UNL1        0.1225
      6 C006       13.1934   -8.5736   -1.8057 C.ar    1  UNL1        0.0041
      7 C007       12.8110   -7.8047   -0.7199 C.ar    1  UNL1        0.0760
      8 C008       11.5536   -7.0293   -0.6832 C.ar    1  UNL1        0.0034
      9 C009       10.9871   -6.4605   -1.8368 C.ar    1  UNL1       -0.0489
     10 C010        9.7931   -5.7287   -1.7775 C.ar    1  UNL1       -0.0161
     11 C011        9.1271   -5.5372   -0.5645 C.ar    1  UNL1        0.1650
     12 O012        7.9799   -4.8061   -0.6675 O.3     1  UNL1       -0.4028
     13 C013        7.2336   -4.5556    0.5129 C.3     1  UNL1        0.5753
     14 F014        7.9490   -3.8390    1.4026 F       1  UNL1       -0.1328
     15 F015        6.7921   -5.7034    1.0656 F       1  UNL1       -0.1328
     16 F016        6.1484   -3.8211    0.1719 F       1  UNL1       -0.1328
     17 C017        9.6861   -6.0908    0.5850 C.ar    1  UNL1        0.1657
     18 F018        9.1055   -5.9476    1.7830 F       1  UNL1       -0.2016
     19 C019       10.8760   -6.8200    0.5301 C.ar    1  UNL1       -0.0136
     20 N020       13.5765   -7.7246    0.3873 N.ar    1  UNL1       -0.2353
     21 C021       14.7311   -8.3994    0.3620 C.ar    1  UNL1        0.1187
     22 N022       15.1807   -9.1618   -0.6429 N.ar    1  UNL1       -0.2209
     23 C023       18.6049   -9.6979   -3.4860 C.ar    1  UNL1       -0.0177
     24 C024       19.4044   -9.6286   -2.3337 C.ar    1  UNL1       -0.0561
     25 C025       20.7309  -10.0624   -2.3612 C.ar    1  UNL1       -0.0614
     26 C026       21.2743  -10.5705   -3.5392 C.ar    1  UNL1       -0.0617
     27 C027       20.4936  -10.6429   -4.6912 C.ar    1  UNL1       -0.0614
     28 C028       19.1670  -10.2101   -4.6651 C.ar    1  UNL1       -0.0561
     29 H029       15.9013   -8.3981   -4.6431 H       1  UNL1        0.2103
     30 H030       17.0804   -8.3558   -2.8164 H       1  UNL1        0.0659
     31 H031       16.3650  -11.2988   -3.4667 H       1  UNL1        0.0490
     32 H032       16.5350  -10.6393   -1.8705 H       1  UNL1        0.0490
     33 H033       14.2058  -10.8303   -2.9459 H       1  UNL1        0.1476
     34 H034       12.5817   -8.6519   -2.6947 H       1  UNL1        0.0673
     35 H035       11.4778   -6.5586   -2.8036 H       1  UNL1        0.0625
     36 H036        9.3868   -5.2995   -2.6917 H       1  UNL1        0.0655
     37 H037       11.2709   -7.2284    1.4583 H       1  UNL1        0.0654
     38 H038       15.3625   -8.3227    1.2404 H       1  UNL1        0.1048
     39 H039       18.9967   -9.2326   -1.4056 H       1  UNL1        0.0621
     40 H040       21.3423   -9.9985   -1.4649 H       1  UNL1        0.0618
     41 H041       22.3089  -10.9029   -3.5626 H       1  UNL1        0.0618
     42 H042       20.9188  -11.0303   -5.6136 H       1  UNL1        0.0618
     43 H043       18.5709  -10.2623   -5.5743 H       1  UNL1        0.0621
@<TRIPOS>BOND
     1     1     2    1
     2     1    29    1
     3     2     3    1
     4     2    23    1
     5     2    30    1
     6     3     4    1
     7     3    31    1
     8     3    32    1
     9     4     5    1
    10     4    33    1
    11     5     6   ar
    12     6     7   ar
    13     6    34    1
    14     7     8    1
    15     7    20   ar
    16     8     9   ar
    17     9    10   ar
    18     9    35    1
    19    10    11   ar
    20    10    36    1
    21    11    12    1
    22    11    17   ar
    23    12    13    1
    24    13    14    1
    25    13    15    1
    26    13    16    1
    27    17    18    1
    28    17    19   ar
    29     8    19   ar
    30    19    37    1
    31    20    21   ar
    32    21    22   ar
    33    21    38    1
    34     5    22   ar
    35    23    24   ar
    36    24    25   ar
    37    24    39    1
    38    25    26   ar
    39    25    40    1
    40    26    27   ar
    41    26    41    1
    42    27    28   ar
    43    27    42    1
    44    23    28   ar
    45    28    43    1
