@<TRIPOS>MOLECULE
24_al
 49 51 0 0 0
SMALL
GASTEIGER

@<TRIPOS>ATOM
      1 C001        6.9344   -4.5051    1.0100 C.3     1  UNL1       -0.0307
      2 C002        6.6407   -5.7128    0.1376 C.3     1  UNL1        0.0868
      3 O003        7.1952   -6.8965    0.7107 O.3     1  UNL1       -0.4917
      4 C004        8.4653   -7.2768    0.3822 C.ar    1  UNL1        0.1322
      5 C005        8.8145   -8.0286   -0.7389 C.ar    1  UNL1       -0.0188
      6 C006       10.1532   -8.3590   -0.9865 C.ar    1  UNL1       -0.0491
      7 C007       11.1870   -7.9545   -0.1276 C.ar    1  UNL1        0.0013
      8 C008       12.5923   -8.3193   -0.4103 C.ar    1  UNL1        0.0760
      9 C009       12.9829   -8.9876   -1.5586 C.ar    1  UNL1        0.0041
     10 C010       14.3270   -9.2790   -1.7105 C.ar    1  UNL1        0.1225
     11 N011       14.7323   -9.9267   -2.8944 N.pl3   1  UNL1       -0.3262
     12 C012       16.1681  -10.2743   -2.9618 C.3     1  UNL1        0.0406
     13 C013       17.0211   -9.0517   -3.3755 C.3     1  UNL1        0.0956
     14 O014       16.4811   -8.5061   -4.5895 O.3     1  UNL1       -0.3856
     15 C015       18.4748   -9.4342   -3.5587 C.ar    1  UNL1       -0.0177
     16 C016       19.3231   -9.4865   -2.4406 C.ar    1  UNL1       -0.0561
     17 C017       20.6599   -9.8652   -2.5774 C.ar    1  UNL1       -0.0614
     18 C018       21.1652  -10.1990   -3.8321 C.ar    1  UNL1       -0.0617
     19 C019       20.3351  -10.1538   -4.9502 C.ar    1  UNL1       -0.0614
     20 C020       18.9980   -9.7758   -4.8144 C.ar    1  UNL1       -0.0561
     21 N021       15.2320   -8.9098   -0.7958 N.ar    1  UNL1       -0.2209
     22 C022       14.7681   -8.2620    0.2805 C.ar    1  UNL1        0.1187
     23 N023       13.4913   -7.9470    0.5238 N.ar    1  UNL1       -0.2353
     24 C024       10.8194   -7.1848    0.9890 C.ar    1  UNL1       -0.0374
     25 C025        9.4743   -6.8422    1.2537 C.ar    1  UNL1        0.0969
     26 C026        9.1325   -6.0101    2.4658 C.3     1  UNL1        0.4208
     27 F027       10.2329   -5.6910    3.2131 F       1  UNL1       -0.1658
     28 F028        8.5545   -4.8160    2.1577 F       1  UNL1       -0.1658
     29 F029        8.2884   -6.6380    3.3317 F       1  UNL1       -0.1658
     30 H030        6.5724   -4.6725    2.0298 H       1  UNL1        0.0262
     31 H031        8.0094   -4.3154    1.0834 H       1  UNL1        0.0262
     32 H032        6.4498   -3.6109    0.6077 H       1  UNL1        0.0262
     33 H033        5.5553   -5.8627    0.1102 H       1  UNL1        0.0694
     34 H034        6.9483   -5.5644   -0.9032 H       1  UNL1        0.0694
     35 H035        8.0764   -8.3708   -1.4567 H       1  UNL1        0.0654
     36 H036       10.3876   -8.9468   -1.8740 H       1  UNL1        0.0625
     37 H037       12.2745   -9.2535   -2.3322 H       1  UNL1        0.0673
     38 H038       14.1585  -10.7585   -3.0207 H       1  UNL1        0.1476
     39 H039       16.2611  -11.0430   -3.7402 H       1  UNL1        0.0490
     40 H040       16.5223  -10.7348   -2.0309 H       1  UNL1        0.0490
     41 H041       16.9583   -8.2498   -2.6319 H       1  UNL1        0.0659
     42 H042       15.5179   -8.4877   -4.4250 H       1  UNL1        0.2103
     43 H043       18.9444   -9.2281   -1.4535 H       1  UNL1        0.0621
     44 H044       21.3074   -9.8974   -1.7052 H       1  UNL1        0.0618
     45 H045       22.2064  -10.4904   -3.9398 H       1  UNL1        0.0618
     46 H046       20.7281  -10.4086   -5.9309 H       1  UNL1        0.0618
     47 H047       18.3635   -9.7400   -5.6980 H       1  UNL1        0.0621
     48 H048       15.4974   -7.9633    1.0256 H       1  UNL1        0.1048
     49 H049       11.5887   -6.8182    1.6683 H       1  UNL1        0.0631
@<TRIPOS>BOND
     1     1     2    1
     2     1    30    1
     3     1    31    1
     4     1    32    1
     5     2     3    1
     6     2    33    1
     7     2    34    1
     8     3     4    1
     9     4     5   ar
    10     5     6   ar
    11     5    35    1
    12     6     7   ar
    13     6    36    1
    14     7     8    1
    15     7    24   ar
    16     8     9   ar
    17     9    10   ar
    18     9    37    1
    19    10    11    1
    20    10    21   ar
    21    11    12    1
    22    11    38    1
    23    12    13    1
    24    12    39    1
    25    12    40    1
    26    13    14    1
    27    13    15    1
    28    13    41    1
    29    14    42    1
    30    15    16   ar
    31    16    17   ar
    32    16    43    1
    33    17    18   ar
    34    17    44    1
    35    18    19   ar
    36    18    45    1
    37    19    20   ar
    38    19    46    1
    39    15    20   ar
    40    20    47    1
    41    21    22   ar
    42    22    23   ar
    43    22    48    1
    44     8    23   ar
    45    24    25   ar
    46    24    49    1
    47     4    25   ar
    48    25    26    1
    49    26    27    1
    50    26    28    1
    51    26    29    1
