@<TRIPOS>MOLECULE
25_al
 46 48 0 0 0
SMALL
GASTEIGER

@<TRIPOS>ATOM
      1 C001        7.4853   -2.9368   -0.0180 C.3     1  UNL1       -0.0307
      2 C002        7.2547   -4.0880   -0.9810 C.3     1  UNL1        0.0868
      3 O003        7.5852   -5.3308   -0.3658 O.3     1  UNL1       -0.4908
      4 C004        8.8458   -5.8433   -0.5075 C.ar    1  UNL1        0.1387
      5 C005        9.4291   -6.2048   -1.7221 C.ar    1  UNL1       -0.0179
      6 C006       10.7359   -6.7154   -1.7644 C.ar    1  UNL1       -0.0490
      7 C007       11.5026   -6.8800   -0.5981 C.ar    1  UNL1        0.0021
      8 C008       12.8794   -7.4170   -0.6274 C.ar    1  UNL1        0.0760
      9 C009       13.3521   -8.2311   -1.6430 C.ar    1  UNL1        0.0041
     10 C010       14.6628   -8.6685   -1.5660 C.ar    1  UNL1        0.1225
     11 N011       15.1366   -9.5171   -2.5775 N.pl3   1  UNL1       -0.3262
     12 C012       16.5990   -9.6717   -2.7182 C.3     1  UNL1        0.0406
     13 C013       17.2233   -8.6225   -3.6753 C.3     1  UNL1        0.0956
     14 O014       16.6033   -8.6526   -4.9640 O.3     1  UNL1       -0.3856
     15 C015       18.7083   -8.8730   -3.8528 C.ar    1  UNL1       -0.0177
     16 C016       19.2062   -9.5296   -4.9889 C.ar    1  UNL1       -0.0561
     17 C017       20.5719   -9.7870   -5.1214 C.ar    1  UNL1       -0.0614
     18 C018       21.4560   -9.3950   -4.1187 C.ar    1  UNL1       -0.0617
     19 C019       20.9764   -8.7437   -2.9840 C.ar    1  UNL1       -0.0614
     20 C020       19.6107   -8.4850   -2.8501 C.ar    1  UNL1       -0.0561
     21 N021       15.4432   -8.3573   -0.5228 N.ar    1  UNL1       -0.2209
     22 C022       14.9054   -7.5609    0.4141 C.ar    1  UNL1        0.1187
     23 N023       13.6616   -7.0716    0.4146 N.ar    1  UNL1       -0.2353
     24 C024       10.9089   -6.4956    0.6160 C.ar    1  UNL1       -0.0306
     25 C025        9.6054   -5.9867    0.6624 C.ar    1  UNL1        0.0831
     26 CL026       8.9645   -5.5503    2.2102 Cl      1  UNL1       -0.0797
     27 H027        6.9206   -3.0929    0.9072 H       1  UNL1        0.0262
     28 H028        8.5390   -2.8562    0.2652 H       1  UNL1        0.0262
     29 H029        7.1710   -1.9896   -0.4655 H       1  UNL1        0.0262
     30 H030        6.1848   -4.1331   -1.2150 H       1  UNL1        0.0694
     31 H031        7.7646   -3.9412   -1.9392 H       1  UNL1        0.0694
     32 H032        8.9056   -6.0885   -2.6653 H       1  UNL1        0.0655
     33 H033       11.1529   -6.9615   -2.7393 H       1  UNL1        0.0625
     34 H034       12.7183   -8.5428   -2.4627 H       1  UNL1        0.0673
     35 H035       14.7248   -9.2331   -3.4633 H       1  UNL1        0.1476
     36 H036       17.0122   -9.5272   -1.7120 H       1  UNL1        0.0490
     37 H037       16.8548  -10.6957   -3.0193 H       1  UNL1        0.0490
     38 H038       17.0706   -7.6112   -3.2794 H       1  UNL1        0.0659
     39 H039       15.6518   -8.8012   -4.7858 H       1  UNL1        0.2103
     40 H040       18.5271   -9.8311   -5.7841 H       1  UNL1        0.0621
     41 H041       20.9444  -10.2881   -6.0110 H       1  UNL1        0.0618
     42 H042       22.5195   -9.5919   -4.2246 H       1  UNL1        0.0618
     43 H043       21.6666   -8.4332   -2.2041 H       1  UNL1        0.0618
     44 H044       19.2547   -7.9746   -1.9579 H       1  UNL1        0.0621
     45 H045       15.5388   -7.2928    1.2533 H       1  UNL1        0.1048
     46 H046       11.4708   -6.5961    1.5438 H       1  UNL1        0.0640
@<TRIPOS>BOND
     1     1     2    1
     2     1    27    1
     3     1    28    1
     4     1    29    1
     5     2     3    1
     6     2    30    1
     7     2    31    1
     8     3     4    1
     9     4     5   ar
    10     5     6   ar
    11     5    32    1
    12     6     7   ar
    13     6    33    1
    14     7     8    1
    15     7    24   ar
    16     8     9   ar
    17     9    10   ar
    18     9    34    1
    19    10    11    1
    20    10    21   ar
    21    11    12    1
    22    11    35    1
    23    12    13    1
    24    12    36    1
    25    12    37    1
    26    13    14    1
    27    13    15    1
    28    13    38    1
    29    14    39    1
    30    15    16   ar
    31    16    17   ar
    32    16    40    1
    33    17    18   ar
    34    17    41    1
    35    18    19   ar
    36    18    42    1
    37    19    20   ar
    38    19    43    1
    39    15    20   ar
    40    20    44    1
    41    21    22   ar
    42    22    23   ar
    43    22    45    1
    44     8    23   ar
    45    24    25   ar
    46    24    46    1
    47     4    25   ar
    48    25    26    1
