@<TRIPOS>MOLECULE
*****
 46 48 0 0 0
SMALL
GASTEIGER

@<TRIPOS>ATOM
      1 C001        5.5408   -4.3679   -0.1381 C.3     1  UNL1       -0.0307
      2 C002        6.6429   -5.3126   -0.5824 C.3     1  UNL1        0.0869
      3 O003        7.8457   -4.9273    0.0785 O.3     1  UNL1       -0.4894
      4 C004        8.9701   -5.6623   -0.1782 C.ar    1  UNL1        0.1555
      5 C005        9.0517   -6.7495   -1.0460 C.ar    1  UNL1       -0.0165
      6 C006       10.2715   -7.4219   -1.2257 C.ar    1  UNL1       -0.0489
      7 C007       11.4414   -7.0279   -0.5491 C.ar    1  UNL1        0.0034
      8 C008       12.7306   -7.7264   -0.7311 C.ar    1  UNL1        0.0760
      9 C009       13.1119   -8.3053   -1.9293 C.ar    1  UNL1        0.0041
     10 C010       14.3434   -8.9334   -1.9802 C.ar    1  UNL1        0.1225
     11 N011       14.7176   -9.5489   -3.1869 N.pl3   1  UNL1       -0.3262
     12 C012       16.0760  -10.1187   -3.2182 C.3     1  UNL1        0.0406
     13 C013       17.1483   -9.0205   -3.4028 C.3     1  UNL1        0.0956
     14 O014       16.8571   -8.2711   -4.5972 O.3     1  UNL1       -0.3856
     15 C015       18.5468   -9.5953   -3.4856 C.ar    1  UNL1       -0.0177
     16 C016       19.4083   -9.5061   -2.3823 C.ar    1  UNL1       -0.0561
     17 C017       20.6957  -10.0424   -2.4424 C.ar    1  UNL1       -0.0614
     18 C018       21.1349  -10.6767   -3.6028 C.ar    1  UNL1       -0.0617
     19 C019       20.2873  -10.7783   -4.7038 C.ar    1  UNL1       -0.0614
     20 C020       18.9998  -10.2431   -4.6459 C.ar    1  UNL1       -0.0561
     21 N021       15.1395   -9.0035   -0.9038 N.ar    1  UNL1       -0.2209
     22 C022       14.6923   -8.4131    0.2116 C.ar    1  UNL1        0.1187
     23 N023       13.5313   -7.7640    0.3535 N.ar    1  UNL1       -0.2353
     24 C024       11.3359   -5.9367    0.3281 C.ar    1  UNL1       -0.0136
     25 C025       10.1238   -5.2700    0.5031 C.ar    1  UNL1        0.1654
     26 F026       10.0843   -4.2284    1.3486 F       1  UNL1       -0.2016
     27 H027        5.4096   -4.4124    0.9482 H       1  UNL1        0.0262
     28 H028        4.5920   -4.6218   -0.6192 H       1  UNL1        0.0262
     29 H029        5.7973   -3.3325   -0.3860 H       1  UNL1        0.0262
     30 H030        6.3684   -6.3373   -0.3067 H       1  UNL1        0.0694
     31 H031        6.7643   -5.2345   -1.6691 H       1  UNL1        0.0694
     32 H032        8.1883   -7.1083   -1.5967 H       1  UNL1        0.0655
     33 H033       10.2850   -8.2805   -1.8954 H       1  UNL1        0.0625
     34 H034       12.4811   -8.2719   -2.8074 H       1  UNL1        0.0673
     35 H035       14.6266   -8.8781   -3.9516 H       1  UNL1        0.1476
     36 H036       16.2767  -10.7432   -2.3387 H       1  UNL1        0.0490
     37 H037       16.1022  -10.7923   -4.0839 H       1  UNL1        0.0490
     38 H038       17.1018   -8.2966   -2.5818 H       1  UNL1        0.0659
     39 H039       17.6740   -7.7910   -4.8215 H       1  UNL1        0.2103
     40 H040       19.0807   -9.0207   -1.4647 H       1  UNL1        0.0621
     41 H041       21.3558   -9.9678   -1.5818 H       1  UNL1        0.0618
     42 H042       22.1371  -11.0952   -3.6476 H       1  UNL1        0.0618
     43 H043       20.6282  -11.2770   -5.6075 H       1  UNL1        0.0618
     44 H044       18.3478  -10.3345   -5.5130 H       1  UNL1        0.0621
     45 H045       15.3336   -8.4653    1.0845 H       1  UNL1        0.1048
     46 H046       12.2014   -5.5890    0.8871 H       1  UNL1        0.0654
@<TRIPOS>BOND
     1     1     2    1
     2     1    27    1
     3     1    28    1
     4     1    29    1
     5     2     3    1
     6     2    30    1
     7     2    31    1
     8     3     4    1
     9     4     5   ar
    10     5     6   ar
    11     5    32    1
    12     6     7   ar
    13     6    33    1
    14     7     8    1
    15     7    24   ar
    16     8     9   ar
    17     9    10   ar
    18     9    34    1
    19    10    11    1
    20    10    21   ar
    21    11    12    1
    22    11    35    1
    23    12    13    1
    24    12    36    1
    25    12    37    1
    26    13    14    1
    27    13    15    1
    28    13    38    1
    29    14    39    1
    30    15    16   ar
    31    16    17   ar
    32    16    40    1
    33    17    18   ar
    34    17    41    1
    35    18    19   ar
    36    18    42    1
    37    19    20   ar
    38    19    43    1
    39    20    15   ar
    40    20    44    1
    41    21    22   ar
    42    22    23   ar
    43    22    45    1
    44    23     8   ar
    45    24    25   ar
    46    24    46    1
    47    25    26    1
    48    25     4   ar
