@<TRIPOS>MOLECULE
27_al
 46 48 0 0 0
SMALL
GASTEIGER

@<TRIPOS>ATOM
      1 O001       16.3919   -8.6696   -4.8406 O.3     1  UNL1       -0.3856
      2 C002       16.9260   -8.8566   -3.5208 C.3     1  UNL1        0.0956
      3 C003       16.2997  -10.1251   -2.8821 C.3     1  UNL1        0.0406
      4 N004       14.8361  -10.0127   -2.8008 N.pl3   1  UNL1       -0.3262
      5 C005       14.3665   -9.2226   -1.7531 C.ar    1  UNL1        0.1225
      6 C006       13.1893   -8.5079   -1.8530 C.ar    1  UNL1        0.0041
      7 C007       12.8151   -7.7429   -0.7622 C.ar    1  UNL1        0.0760
      8 C008       11.5831   -6.9254   -0.7318 C.ar    1  UNL1        0.0034
      9 C009       10.8344   -6.6457   -1.8912 C.ar    1  UNL1       -0.0489
     10 C010        9.6656   -5.8674   -1.8485 C.ar    1  UNL1       -0.0164
     11 C011        9.2116   -5.3488   -0.6377 C.ar    1  UNL1        0.1560
     12 O012        8.0946   -4.5797   -0.4639 O.3     1  UNL1       -0.4802
     13 C013        7.3115   -4.2757   -1.6221 C.3     1  UNL1        0.1843
     14 C014        6.1122   -3.4161   -1.2505 C.3     1  UNL1        0.4236
     15 F015        5.2926   -4.0419   -0.3787 F       1  UNL1       -0.1671
     16 F016        6.4848   -2.2359   -0.7105 F       1  UNL1       -0.1671
     17 F017        5.3820   -3.1374   -2.3586 F       1  UNL1       -0.1671
     18 C018        9.9435   -5.6270    0.5182 C.ar    1  UNL1        0.1654
     19 F019        9.5352   -5.1459    1.7024 F       1  UNL1       -0.2016
     20 C020       11.1033   -6.3998    0.4788 C.ar    1  UNL1       -0.0136
     21 N021       13.5755   -7.6909    0.3515 N.ar    1  UNL1       -0.2353
     22 C022       14.7037   -8.4115    0.3406 C.ar    1  UNL1        0.1187
     23 N023       15.1372   -9.1848   -0.6619 N.ar    1  UNL1       -0.2209
     24 C024       18.4373   -8.7759   -3.6117 C.ar    1  UNL1       -0.0177
     25 C025       19.1629   -8.4858   -2.4412 C.ar    1  UNL1       -0.0561
     26 C026       20.5575   -8.4143   -2.4530 C.ar    1  UNL1       -0.0614
     27 C027       21.2534   -8.6278   -3.6387 C.ar    1  UNL1       -0.0617
     28 C028       20.5541   -8.9063   -4.8100 C.ar    1  UNL1       -0.0614
     29 C029       19.1576   -8.9785   -4.7976 C.ar    1  UNL1       -0.0561
     30 H030       15.4311   -8.8092   -4.7945 H       1  UNL1        0.2103
     31 H031       16.5968   -8.0021   -2.9150 H       1  UNL1        0.0659
     32 H032       16.7129  -10.2123   -1.8678 H       1  UNL1        0.0490
     33 H033       16.5844  -11.0245   -3.4400 H       1  UNL1        0.0490
     34 H034       14.4593   -9.5979   -3.6588 H       1  UNL1        0.1476
     35 H035       12.6146   -8.5234   -2.7684 H       1  UNL1        0.0673
     36 H036       11.1405   -7.0479   -2.8552 H       1  UNL1        0.0625
     37 H037        9.1392   -5.6958   -2.7819 H       1  UNL1        0.0655
     38 H038        6.9459   -5.2041   -2.0762 H       1  UNL1        0.0788
     39 H039        7.9216   -3.7255   -2.3479 H       1  UNL1        0.0788
     40 H040       11.6312   -6.5838    1.4120 H       1  UNL1        0.0654
     41 H041       15.3241   -8.3659    1.2291 H       1  UNL1        0.1048
     42 H042       18.6331   -8.3001   -1.5085 H       1  UNL1        0.0621
     43 H043       21.0968   -8.1834   -1.5384 H       1  UNL1        0.0618
     44 H044       22.3381   -8.5665   -3.6529 H       1  UNL1        0.0618
     45 H045       21.0945   -9.0594   -5.7408 H       1  UNL1        0.0618
     46 H046       18.6513   -9.1811   -5.7381 H       1  UNL1        0.0621
@<TRIPOS>BOND
     1     1     2    1
     2     1    30    1
     3     2     3    1
     4     2    24    1
     5     2    31    1
     6     3     4    1
     7     3    32    1
     8     3    33    1
     9     4     5    1
    10     4    34    1
    11     5     6   ar
    12     6     7   ar
    13     6    35    1
    14     7     8    1
    15     7    21   ar
    16     8     9   ar
    17     9    10   ar
    18     9    36    1
    19    10    11   ar
    20    10    37    1
    21    11    12    1
    22    11    18   ar
    23    12    13    1
    24    13    14    1
    25    13    38    1
    26    13    39    1
    27    14    15    1
    28    14    16    1
    29    14    17    1
    30    18    19    1
    31    18    20   ar
    32     8    20   ar
    33    20    40    1
    34    21    22   ar
    35    22    23   ar
    36    22    41    1
    37     5    23   ar
    38    24    25   ar
    39    25    26   ar
    40    25    42    1
    41    26    27   ar
    42    26    43    1
    43    27    28   ar
    44    27    44    1
    45    28    29   ar
    46    28    45    1
    47    24    29   ar
    48    29    46    1
