@<TRIPOS>MOLECULE
28_al
 44 46 0 0 0
SMALL
GASTEIGER

@<TRIPOS>ATOM
      1 C001        6.8076   -5.1800   -2.4319 C.3     1  UNL1       -0.0013
      2 C002        7.6355   -4.8905   -1.2066 C.2     1  UNL1        0.1629
      3 O003        7.2328   -4.1370   -0.3259 O.2     1  UNL1       -0.2923
      4 C004        8.9776   -5.5109   -1.1094 C.ar    1  UNL1        0.0523
      5 C005        9.7764   -5.6733   -2.2452 C.ar    1  UNL1       -0.0479
      6 C006       11.0486   -6.2516   -2.1310 C.ar    1  UNL1       -0.0517
      7 C007       11.5530   -6.6830   -0.8886 C.ar    1  UNL1        0.0033
      8 C008       12.8925   -7.2954   -0.7487 C.ar    1  UNL1        0.0760
      9 C009       13.4199   -8.1834   -1.6711 C.ar    1  UNL1        0.0041
     10 C010       14.6818   -8.6973   -1.4278 C.ar    1  UNL1        0.1225
     11 N011       15.2085   -9.6041   -2.3662 N.pl3   1  UNL1       -0.3262
     12 C012       16.6759   -9.6051   -2.5171 C.3     1  UNL1        0.0406
     13 C013       17.1326   -8.8459   -3.7906 C.3     1  UNL1        0.0956
     14 O014       16.4227   -9.2701   -4.9575 O.3     1  UNL1       -0.3856
     15 C015       18.6188   -9.0269   -4.0407 C.ar    1  UNL1       -0.0177
     16 C016       19.0782   -9.6916   -5.1892 C.ar    1  UNL1       -0.0561
     17 C017       20.4450   -9.8625   -5.4115 C.ar    1  UNL1       -0.0614
     18 C018       21.3675   -9.3728   -4.4895 C.ar    1  UNL1       -0.0617
     19 C019       20.9251   -8.7113   -3.3455 C.ar    1  UNL1       -0.0614
     20 C020       19.5580   -8.5387   -3.1207 C.ar    1  UNL1       -0.0561
     21 N021       15.3814   -8.3397   -0.3464 N.ar    1  UNL1       -0.2209
     22 C022       14.7910   -7.4914    0.5022 C.ar    1  UNL1        0.1187
     23 N023       13.5791   -6.9423    0.3563 N.ar    1  UNL1       -0.2353
     24 C024       10.7305   -6.4979    0.2382 C.ar    1  UNL1       -0.0166
     25 C025        9.4648   -5.9214    0.1279 C.ar    1  UNL1        0.1344
     26 F026        8.7211   -5.8107    1.2375 F       1  UNL1       -0.2047
     27 H027        6.9956   -4.4177   -3.1918 H       1  UNL1        0.0309
     28 H028        7.0302   -6.1730   -2.8323 H       1  UNL1        0.0309
     29 H029        5.7487   -5.1682   -2.1566 H       1  UNL1        0.0309
     30 H030        9.4388   -5.3354   -3.2218 H       1  UNL1        0.0626
     31 H031       11.6532   -6.3372   -3.0324 H       1  UNL1        0.0624
     32 H032       12.8619   -8.5061   -2.5397 H       1  UNL1        0.0673
     33 H033       14.7441   -9.4430   -3.2556 H       1  UNL1        0.1476
     34 H034       17.0972  -10.6168   -2.4724 H       1  UNL1        0.0490
     35 H035       17.0694   -9.0740   -1.6403 H       1  UNL1        0.0490
     36 H036       16.9133   -7.7779   -3.6703 H       1  UNL1        0.0659
     37 H037       16.9457   -8.9933   -5.7278 H       1  UNL1        0.2103
     38 H038       18.3671  -10.0742   -5.9201 H       1  UNL1        0.0621
     39 H039       20.7894  -10.3765   -6.3054 H       1  UNL1        0.0618
     40 H040       22.4323   -9.5054   -4.6634 H       1  UNL1        0.0618
     41 H041       21.6461   -8.3286   -2.6275 H       1  UNL1        0.0618
     42 H042       19.2326   -8.0194   -2.2216 H       1  UNL1        0.0621
     43 H043       15.3502   -7.2205    1.3907 H       1  UNL1        0.1048
     44 H044       11.0687   -6.8092    1.2250 H       1  UNL1        0.0653
@<TRIPOS>BOND
     1     1     2    1
     2     1    27    1
     3     1    28    1
     4     1    29    1
     5     2     3    2
     6     2     4    1
     7     4     5   ar
     8     5     6   ar
     9     5    30    1
    10     6     7   ar
    11     6    31    1
    12     7     8    1
    13     7    24   ar
    14     8     9   ar
    15     9    10   ar
    16     9    32    1
    17    10    11    1
    18    10    21   ar
    19    11    12    1
    20    11    33    1
    21    12    13    1
    22    12    34    1
    23    12    35    1
    24    13    14    1
    25    13    15    1
    26    13    36    1
    27    14    37    1
    28    15    16   ar
    29    16    17   ar
    30    16    38    1
    31    17    18   ar
    32    17    39    1
    33    18    19   ar
    34    18    40    1
    35    19    20   ar
    36    19    41    1
    37    15    20   ar
    38    20    42    1
    39    21    22   ar
    40    22    23   ar
    41    22    43    1
    42     8    23   ar
    43    24    25   ar
    44    24    44    1
    45     4    25   ar
    46    25    26    1
