@<TRIPOS>MOLECULE
29_al
 42 44 0 0 0
SMALL
GASTEIGER

@<TRIPOS>ATOM
      1 O001       16.5823   -8.5177   -4.7351 O.3     1  UNL1       -0.3856
      2 C002       17.0582   -8.9148   -3.4458 C.3     1  UNL1        0.0956
      3 C003       16.3765  -10.2225   -2.9645 C.3     1  UNL1        0.0406
      4 N004       14.9192  -10.0697   -2.7763 N.pl3   1  UNL1       -0.3262
      5 C005       14.4764   -9.2405   -1.7357 C.ar    1  UNL1        0.1225
      6 C006       13.2813   -8.5633   -1.9049 C.ar    1  UNL1        0.0041
      7 C007       12.8316   -7.7697   -0.8629 C.ar    1  UNL1        0.0760
      8 C008       11.5756   -6.9915   -0.9227 C.ar    1  UNL1        0.0032
      9 C009       10.8983   -6.8114   -2.1449 C.ar    1  UNL1       -0.0519
     10 C010        9.7074   -6.0785   -2.2272 C.ar    1  UNL1       -0.0467
     11 C011        9.1520   -5.5035   -1.0795 C.ar    1  UNL1        0.0899
     12 C012        7.8802   -4.7124   -1.1150 C.3     1  UNL1        0.4201
     13 F013        6.8959   -5.2539   -0.3460 F       1  UNL1       -0.1658
     14 F014        7.3495   -4.6111   -2.3682 F       1  UNL1       -0.1658
     15 F015        8.0406   -3.4310   -0.6840 F       1  UNL1       -0.1658
     16 C016        9.8100   -5.6838    0.1318 C.ar    1  UNL1        0.1356
     17 F017        9.3024   -5.1537    1.2526 F       1  UNL1       -0.2049
     18 C018       10.9976   -6.4127    0.2188 C.ar    1  UNL1       -0.0167
     19 N019       13.5242   -7.6690    0.2896 N.ar    1  UNL1       -0.2353
     20 C020       14.6555   -8.3767    0.3687 C.ar    1  UNL1        0.1187
     21 N021       15.1608   -9.1727   -0.5862 N.ar    1  UNL1       -0.2209
     22 C022       18.5625   -9.0890   -3.5232 C.ar    1  UNL1       -0.0177
     23 C023       19.1688   -9.7128   -4.6249 C.ar    1  UNL1       -0.0561
     24 C024       20.5515   -9.8994   -4.6657 C.ar    1  UNL1       -0.0614
     25 C025       21.3450   -9.4690   -3.6045 C.ar    1  UNL1       -0.0617
     26 C026       20.7575   -8.8501   -2.5030 C.ar    1  UNL1       -0.0614
     27 C027       19.3745   -8.6621   -2.4610 C.ar    1  UNL1       -0.0561
     28 H028       15.6255   -8.7262   -4.7290 H       1  UNL1        0.2103
     29 H029       16.8232   -8.0918   -2.7601 H       1  UNL1        0.0659
     30 H030       16.5963  -11.0631   -3.6352 H       1  UNL1        0.0490
     31 H031       16.7780  -10.4927   -1.9796 H       1  UNL1        0.0490
     32 H032       14.4803   -9.7709   -3.6446 H       1  UNL1        0.1476
     33 H033       12.7133   -8.6792   -2.8187 H       1  UNL1        0.0673
     34 H034       11.3052   -7.2488   -3.0575 H       1  UNL1        0.0624
     35 H035        9.2200   -5.9646   -3.1948 H       1  UNL1        0.0624
     36 H036       11.4448   -6.5301    1.2021 H       1  UNL1        0.0653
     37 H037       15.2159   -8.3053    1.2951 H       1  UNL1        0.1048
     38 H038       18.5608  -10.0439   -5.4647 H       1  UNL1        0.0621
     39 H039       21.0081  -10.3753   -5.5293 H       1  UNL1        0.0618
     40 H040       22.4218   -9.6109   -3.6390 H       1  UNL1        0.0618
     41 H041       21.3771   -8.5100   -1.6773 H       1  UNL1        0.0618
     42 H042       18.9339   -8.1755   -1.5934 H       1  UNL1        0.0621
@<TRIPOS>BOND
     1     1     2    1
     2     1    28    1
     3     2     3    1
     4     2    22    1
     5     2    29    1
     6     3     4    1
     7     3    30    1
     8     3    31    1
     9     4     5    1
    10     4    32    1
    11     5     6   ar
    12     6     7   ar
    13     6    33    1
    14     7     8    1
    15     7    19   ar
    16     8     9   ar
    17     9    10   ar
    18     9    34    1
    19    10    11   ar
    20    10    35    1
    21    11    12    1
    22    11    16   ar
    23    12    13    1
    24    12    14    1
    25    12    15    1
    26    16    17    1
    27    16    18   ar
    28     8    18   ar
    29    18    36    1
    30    19    20   ar
    31    20    21   ar
    32    20    37    1
    33     5    21   ar
    34    22    23   ar
    35    23    24   ar
    36    23    38    1
    37    24    25   ar
    38    24    39    1
    39    25    26   ar
    40    25    40    1
    41    26    27   ar
    42    26    41    1
    43    22    27   ar
    44    27    42    1
