@<TRIPOS>MOLECULE
*****
 45 47 0 0 0
SMALL
GASTEIGER

@<TRIPOS>ATOM
      1 C001        6.4439   -6.0642   -0.3042 C.3     1  UNL1       -0.0613
      2 C002        7.5982   -5.1102   -0.0377 C.3     1  UNL1       -0.0305
      3 C003        8.9341   -5.7819   -0.2227 C.ar    1  UNL1       -0.0476
      4 C004        9.5627   -5.7866   -1.4712 C.ar    1  UNL1       -0.0580
      5 C005       10.7967   -6.4253   -1.6453 C.ar    1  UNL1       -0.0523
      6 C006       11.4379   -7.0865   -0.5822 C.ar    1  UNL1        0.0005
      7 C007       12.7385   -7.7711   -0.7487 C.ar    1  UNL1        0.0760
      8 C008       13.1272   -8.3716   -1.9344 C.ar    1  UNL1        0.0041
      9 C009       14.3706   -8.9764   -1.9770 C.ar    1  UNL1        0.1225
     10 N010       14.7513   -9.6143   -3.1701 N.pl3   1  UNL1       -0.3262
     11 C011       16.1213  -10.1545   -3.1965 C.3     1  UNL1        0.0406
     12 C012       17.1686   -9.0381   -3.4125 C.3     1  UNL1        0.0956
     13 O013       16.8598   -8.3268   -4.6256 O.3     1  UNL1       -0.3856
     14 C014       18.5795   -9.5840   -3.4832 C.ar    1  UNL1       -0.0177
     15 C015       19.0435  -10.2546   -4.6261 C.ar    1  UNL1       -0.0561
     16 C016       20.3424  -10.7629   -4.6728 C.ar    1  UNL1       -0.0614
     17 C017       21.1905  -10.6110   -3.5779 C.ar    1  UNL1       -0.0617
     18 C018       20.7404   -9.9536   -2.4347 C.ar    1  UNL1       -0.0614
     19 C019       19.4416   -9.4442   -2.3857 C.ar    1  UNL1       -0.0561
     20 N020       15.1725   -9.0077   -0.9031 N.ar    1  UNL1       -0.2209
     21 C021       14.7109   -8.4147    0.2051 C.ar    1  UNL1        0.1187
     22 N022       13.5353   -7.7916    0.3405 N.ar    1  UNL1       -0.2353
     23 C023       10.7908   -7.0681    0.6667 C.ar    1  UNL1       -0.0523
     24 C024        9.5574   -6.4318    0.8457 C.ar    1  UNL1       -0.0580
     25 H025        6.4722   -6.9220    0.3763 H       1  UNL1        0.0233
     26 H026        5.4879   -5.5504   -0.1625 H       1  UNL1        0.0233
     27 H027        6.4743   -6.4479   -1.3295 H       1  UNL1        0.0233
     28 H028        7.5228   -4.7130    0.9819 H       1  UNL1        0.0311
     29 H029        7.5248   -4.2439   -0.7064 H       1  UNL1        0.0311
     30 H030        9.0990   -5.2884   -2.3199 H       1  UNL1        0.0620
     31 H031       11.2575   -6.3817   -2.6295 H       1  UNL1        0.0624
     32 H032       12.4780   -8.3989   -2.7995 H       1  UNL1        0.0673
     33 H033       14.6369   -8.9679   -3.9520 H       1  UNL1        0.1476
     34 H034       16.3402  -10.7538   -2.3038 H       1  UNL1        0.0490
     35 H035       16.1577  -10.8475   -4.0463 H       1  UNL1        0.0490
     36 H036       17.1077   -8.2939   -2.6107 H       1  UNL1        0.0659
     37 H037       17.6662   -7.8358   -4.8641 H       1  UNL1        0.2103
     38 H038       18.3914  -10.3851   -5.4881 H       1  UNL1        0.0621
     39 H039       20.6917  -11.2798   -5.5631 H       1  UNL1        0.0618
     40 H040       22.2014  -11.0088   -3.6138 H       1  UNL1        0.0618
     41 H041       21.4005   -9.8402   -1.5785 H       1  UNL1        0.0618
     42 H042       19.1053   -8.9404   -1.4813 H       1  UNL1        0.0621
     43 H043       15.3533   -8.4416    1.0783 H       1  UNL1        0.1048
     44 H044       11.2508   -7.5631    1.5209 H       1  UNL1        0.0624
     45 H045        9.0910   -6.4497    1.8281 H       1  UNL1        0.0620
@<TRIPOS>BOND
     1     1     2    1
     2     1    25    1
     3     1    26    1
     4     1    27    1
     5     2     3    1
     6     2    28    1
     7     2    29    1
     8     3     4   ar
     9     4     5   ar
    10     4    30    1
    11     5     6   ar
    12     5    31    1
    13     6     7    1
    14     6    23   ar
    15     7     8   ar
    16     8     9   ar
    17     8    32    1
    18     9    10    1
    19     9    20   ar
    20    10    11    1
    21    10    33    1
    22    11    12    1
    23    11    34    1
    24    11    35    1
    25    12    13    1
    26    12    14    1
    27    12    36    1
    28    13    37    1
    29    14    15   ar
    30    15    16   ar
    31    15    38    1
    32    16    17   ar
    33    16    39    1
    34    17    18   ar
    35    17    40    1
    36    18    19   ar
    37    18    41    1
    38    19    14   ar
    39    19    42    1
    40    20    21   ar
    41    21    22   ar
    42    21    43    1
    43    22     7   ar
    44    23    24   ar
    45    23    44    1
    46    24     3   ar
    47    24    45    1
