@<TRIPOS>MOLECULE
30_al
 42 44 0 0 0
SMALL
GASTEIGER

@<TRIPOS>ATOM
      1 O001       15.7728   -8.4512   -4.0075 O.3     1  UNL1       -0.3856
      2 C002       16.7094   -8.8543   -2.9955 C.3     1  UNL1        0.0956
      3 C003       16.3430  -10.2995   -2.5663 C.3     1  UNL1        0.0406
      4 N004       14.9108  -10.3642   -2.2031 N.pl3   1  UNL1       -0.3262
      5 C005       14.5308   -9.3293   -1.3373 C.ar    1  UNL1        0.1225
      6 C006       13.2890   -8.7307   -1.4221 C.ar    1  UNL1        0.0041
      7 C007       13.0105   -7.7150   -0.5245 C.ar    1  UNL1        0.0760
      8 C008       11.7249   -6.9766   -0.4995 C.ar    1  UNL1        0.0011
      9 C009       11.1048   -6.5007   -1.6664 C.ar    1  UNL1       -0.0512
     10 C010        9.8912   -5.8059   -1.6133 C.ar    1  UNL1       -0.0422
     11 C011        9.2665   -5.5607   -0.3889 C.ar    1  UNL1        0.0526
     12 CL012       7.7719   -4.6984   -0.4145 Cl      1  UNL1       -0.0830
     13 C013        9.8506   -6.0040    0.7985 C.ar    1  UNL1        0.0737
     14 C014        9.2084   -5.7497    2.1354 C.3     1  UNL1        0.4188
     15 F015        7.9818   -6.3282    2.2536 F       1  UNL1       -0.1658
     16 F016        9.0363   -4.4254    2.4024 F       1  UNL1       -0.1658
     17 F017        9.9361   -6.2355    3.1824 F       1  UNL1       -0.1658
     18 C018       11.0727   -6.7077    0.7232 C.ar    1  UNL1       -0.0395
     19 N019       13.9141   -7.3388    0.4061 N.ar    1  UNL1       -0.2353
     20 C020       15.0801   -7.9968    0.4140 C.ar    1  UNL1        0.1187
     21 N021       15.4366   -8.9798   -0.4207 N.ar    1  UNL1       -0.2209
     22 C022       18.1427   -8.6895   -3.4793 C.ar    1  UNL1       -0.0177
     23 C023       18.4687   -8.7227   -4.8472 C.ar    1  UNL1       -0.0561
     24 C024       19.7889   -8.5703   -5.2768 C.ar    1  UNL1       -0.0614
     25 C025       20.8061   -8.3713   -4.3476 C.ar    1  UNL1       -0.0617
     26 C026       20.5023   -8.3159   -2.9889 C.ar    1  UNL1       -0.0614
     27 C027       19.1811   -8.4649   -2.5581 C.ar    1  UNL1       -0.0561
     28 H028       15.6143   -9.2621   -4.5360 H       1  UNL1        0.2103
     29 H029       16.5659   -8.1772   -2.1452 H       1  UNL1        0.0659
     30 H030       16.9449  -10.5494   -1.6834 H       1  UNL1        0.0490
     31 H031       16.5795  -11.0220   -3.3564 H       1  UNL1        0.0490
     32 H032       14.7410  -11.2076   -1.6436 H       1  UNL1        0.1476
     33 H033       12.5643   -9.0789   -2.1434 H       1  UNL1        0.0673
     34 H034       11.5614   -6.6463   -2.6432 H       1  UNL1        0.0625
     35 H035        9.4397   -5.4532   -2.5386 H       1  UNL1        0.0632
     36 H036       11.5330   -7.0590    1.6501 H       1  UNL1        0.0630
     37 H037       15.8047   -7.7043    1.1667 H       1  UNL1        0.1048
     38 H038       17.6927   -8.8642   -5.5964 H       1  UNL1        0.0621
     39 H039       20.0198   -8.6043   -6.3388 H       1  UNL1        0.0618
     40 H040       21.8328   -8.2547   -4.6826 H       1  UNL1        0.0618
     41 H041       21.2954   -8.1527   -2.2606 H       1  UNL1        0.0618
     42 H042       18.9771   -8.4045   -1.4896 H       1  UNL1        0.0621
@<TRIPOS>BOND
     1     1     2    1
     2     1    28    1
     3     2     3    1
     4     2    22    1
     5     2    29    1
     6     3     4    1
     7     3    30    1
     8     3    31    1
     9     4     5    1
    10     4    32    1
    11     5     6   ar
    12     6     7   ar
    13     6    33    1
    14     7     8    1
    15     7    19   ar
    16     8     9   ar
    17     9    10   ar
    18     9    34    1
    19    10    11   ar
    20    10    35    1
    21    11    12    1
    22    11    13   ar
    23    13    14    1
    24    13    18   ar
    25    14    15    1
    26    14    16    1
    27    14    17    1
    28     8    18   ar
    29    18    36    1
    30    19    20   ar
    31    20    21   ar
    32    20    37    1
    33     5    21   ar
    34    22    23   ar
    35    23    24   ar
    36    23    38    1
    37    24    25   ar
    38    24    39    1
    39    25    26   ar
    40    25    40    1
    41    26    27   ar
    42    26    41    1
    43    22    27   ar
    44    27    42    1
