@<TRIPOS>MOLECULE
ligand_for_babel.pdb
 42 44 0 0 0
SMALL
GASTEIGER

@<TRIPOS>ATOM
      1 C001       11.5118   -7.0163   -0.6118 C.ar    1  UNL1        0.0019
      2 N002       15.1800   -9.2147   -0.7028 N.ar    1  UNL1       -0.2209
      3 O003       16.4870   -8.5925   -4.6643 O.3     1  UNL1       -0.3856
      4 C004       10.8624   -6.5997   -1.7592 C.ar    1  UNL1       -0.0519
      5 N005       13.6203   -7.8204    0.4062 N.ar    1  UNL1       -0.2353
      6 C006       10.9568   -6.6577    0.6046 C.ar    1  UNL1       -0.0337
      7 N007       14.6950   -9.9656   -2.8539 N.pl3   1  UNL1       -0.3262
      8 C008        9.6920   -5.8543   -1.7064 C.ar    1  UNL1       -0.0481
      9 C009        9.7833   -5.9055    0.6714 C.ar    1  UNL1        0.0532
     10 C010        9.1119   -5.4927   -0.4891 C.ar    1  UNL1        0.0731
     11 C011       12.7762   -7.8127   -0.6709 C.ar    1  UNL1        0.0760
     12 C012       13.1455   -8.5508   -1.7786 C.ar    1  UNL1        0.0041
     13 C013       16.0665  -10.3864   -3.0951 C.3     1  UNL1        0.0406
     14 C014       16.9240   -9.1630   -3.4410 C.3     1  UNL1        0.0956
     15 C015       20.3010  -10.2260   -4.8280 C.ar    1  UNL1       -0.0614
     16 C016       18.9390   -9.9640   -4.7360 C.ar    1  UNL1       -0.0561
     17 C017       19.2110   -9.3660   -2.4290 C.ar    1  UNL1       -0.0561
     18 C018       14.3528   -9.2404   -1.7543 C.ar    1  UNL1        0.1225
     19 C019       14.7649   -8.5027    0.3443 C.ar    1  UNL1        0.1187
     20 C020       21.1200  -10.0470   -3.7210 C.ar    1  UNL1       -0.0617
     21 C021       20.5730   -9.6200   -2.5200 C.ar    1  UNL1       -0.0614
     22 C022       18.3840   -9.5240   -3.5380 C.ar    1  UNL1       -0.0177
     23 C023        7.8537   -4.6396   -0.4781 C.3     1  UNL1        0.4188
     24 CL024       9.2519   -5.4555    2.2733 Cl      1  UNL1       -0.0830
     25 F025        7.2981   -4.6424   -1.6753 F       1  UNL1       -0.1658
     26 F026        8.2258   -3.4144   -0.1626 F       1  UNL1       -0.1658
     27 F027        6.9801   -5.1126    0.3928 F       1  UNL1       -0.1658
     28 H028       11.2657   -6.8367   -2.7373 H       1  UNL1        0.0624
     29 H029       11.4531   -6.9307    1.5225 H       1  UNL1        0.0639
     30 H030        9.2717   -5.5688   -2.6649 H       1  UNL1        0.0624
     31 H031       12.5187   -8.5954   -2.6526 H       1  UNL1        0.0673
     32 H032       16.0889  -11.1100   -3.9438 H       1  UNL1        0.0490
     33 H033       16.4857  -10.9130   -2.2063 H       1  UNL1        0.0490
     34 H034       16.8040   -8.3743   -2.6607 H       1  UNL1        0.0659
     35 H035       20.7290  -10.5630   -5.7640 H       1  UNL1        0.0618
     36 H036       18.3250  -10.1170   -5.6130 H       1  UNL1        0.0621
     37 H037       18.7900   -9.0150   -1.4960 H       1  UNL1        0.0621
     38 H038       16.5046   -9.3212   -5.3001 H       1  UNL1        0.2103
     39 H039       15.4137   -8.4643    1.2233 H       1  UNL1        0.1048
     40 H040       22.1860  -10.1950   -3.8160 H       1  UNL1        0.0618
     41 H041       21.2080   -9.4500   -1.6630 H       1  UNL1        0.0618
     42 H042       14.1994   -9.6180   -3.6737 H       1  UNL1        0.1476
@<TRIPOS>BOND
     1     1     6   ar
     2     2    19   ar
     3     3    14    1
     4     1     4   ar
     5     4     8   ar
     6     6     9   ar
     7     6    29    1
     8     7    18    1
     9     8    10   ar
    10     9    24    1
    11     9    10   ar
    12    10    23    1
    13     1    11    1
    14     5    11   ar
    15    11    12   ar
    16    12    18   ar
    17     7    13    1
    18    13    33    1
    19    13    14    1
    20    14    34    1
    21    15    16   ar
    22    15    20   ar
    23    16    22   ar
    24    17    37    1
    25     2    18   ar
    26     5    19   ar
    27    19    39    1
    28    20    21   ar
    29    17    21   ar
    30    21    41    1
    31    14    22    1
    32    17    22   ar
    33    23    26    1
    34    23    27    1
    35    23    25    1
    36     4    28    1
    37     8    30    1
    38    12    31    1
    39    13    32    1
    40    15    35    1
    41    16    36    1
    42     3    38    1
    43    20    40    1
    44     7    42    1
