@<TRIPOS>MOLECULE
32_al
 43 45 0 0 0
SMALL
GASTEIGER

@<TRIPOS>ATOM
      1 O001       16.6493   -8.7675   -4.4933 O.3     1  UNL1       -0.3856
      2 C002       17.2010   -9.2776   -3.2680 C.3     1  UNL1        0.0956
      3 C003       16.2796  -10.4006   -2.7190 C.3     1  UNL1        0.0406
      4 N004       14.8689  -10.0087   -2.8004 N.pl3   1  UNL1       -0.3262
      5 C005       14.3646   -9.2395   -1.7598 C.ar    1  UNL1        0.1225
      6 C006       13.1810   -8.5382   -1.8685 C.ar    1  UNL1        0.0041
      7 C007       12.8015   -7.7638   -0.7859 C.ar    1  UNL1        0.0760
      8 C008       11.5639   -6.9611   -0.7762 C.ar    1  UNL1        0.0007
      9 C009       11.1547   -6.2894    0.3871 C.ar    1  UNL1       -0.0491
     10 C010        9.9812   -5.5230    0.4230 C.ar    1  UNL1       -0.0190
     11 C011        9.1791   -5.4163   -0.7097 C.ar    1  UNL1        0.1300
     12 O012        8.0123   -4.7153   -0.8177 O.3     1  UNL1       -0.4057
     13 C013        7.5651   -4.0069    0.3255 C.3     1  UNL1        0.5752
     14 F014        7.3334   -4.8421    1.3593 F       1  UNL1       -0.1328
     15 F015        6.4037   -3.3845    0.0221 F       1  UNL1       -0.1328
     16 F016        8.4612   -3.0659    0.6921 F       1  UNL1       -0.1328
     17 C017        9.5668   -6.0827   -1.8729 C.ar    1  UNL1       -0.0190
     18 C018       10.7411   -6.8450   -1.9077 C.ar    1  UNL1       -0.0491
     19 N019       13.5572   -7.6851    0.3294 N.ar    1  UNL1       -0.2353
     20 C020       14.6865   -8.4023    0.3308 C.ar    1  UNL1        0.1187
     21 N021       15.1276   -9.1844   -0.6623 N.ar    1  UNL1       -0.2209
     22 C022       18.6610   -9.6106   -3.5154 C.ar    1  UNL1       -0.0177
     23 C023       19.5924   -9.3372   -2.4964 C.ar    1  UNL1       -0.0561
     24 C024       20.9490   -9.6246   -2.6608 C.ar    1  UNL1       -0.0614
     25 C025       21.4003  -10.1938   -3.8478 C.ar    1  UNL1       -0.0617
     26 C026       20.4949  -10.4750   -4.8671 C.ar    1  UNL1       -0.0614
     27 C027       19.1374  -10.1837   -4.7037 C.ar    1  UNL1       -0.0561
     28 H028       15.6986   -8.6257   -4.3526 H       1  UNL1        0.2103
     29 H029       17.1786   -8.4582   -2.5375 H       1  UNL1        0.0659
     30 H030       16.5471  -10.5610   -1.6653 H       1  UNL1        0.0490
     31 H031       16.4519  -11.3385   -3.2588 H       1  UNL1        0.0490
     32 H032       14.6583   -9.5122   -3.6698 H       1  UNL1        0.1476
     33 H033       12.6008   -8.5593   -2.7808 H       1  UNL1        0.0673
     34 H034       11.7641   -6.3552    1.2876 H       1  UNL1        0.0625
     35 H035        9.7372   -5.0302    1.3599 H       1  UNL1        0.0654
     36 H036        8.9462   -6.0189   -2.7635 H       1  UNL1        0.0654
     37 H037       10.9909   -7.3656   -2.8291 H       1  UNL1        0.0625
     38 H038       15.3032   -8.3456    1.2210 H       1  UNL1        0.1048
     39 H039       19.2598   -8.8737   -1.5698 H       1  UNL1        0.0621
     40 H040       21.6528   -9.3895   -1.8675 H       1  UNL1        0.0618
     41 H041       22.4575  -10.4053   -3.9842 H       1  UNL1        0.0618
     42 H042       20.8459  -10.9033   -5.8020 H       1  UNL1        0.0618
     43 H043       18.4704  -10.3968   -5.5364 H       1  UNL1        0.0621
@<TRIPOS>BOND
     1     1     2    1
     2     1    28    1
     3     2     3    1
     4     2    22    1
     5     2    29    1
     6     3     4    1
     7     3    30    1
     8     3    31    1
     9     4     5    1
    10     4    32    1
    11     5     6   ar
    12     6     7   ar
    13     6    33    1
    14     7     8    1
    15     7    19   ar
    16     8     9   ar
    17     9    10   ar
    18     9    34    1
    19    10    11   ar
    20    10    35    1
    21    11    12    1
    22    11    17   ar
    23    12    13    1
    24    13    14    1
    25    13    15    1
    26    13    16    1
    27    17    18   ar
    28    17    36    1
    29     8    18   ar
    30    18    37    1
    31    19    20   ar
    32    20    21   ar
    33    20    38    1
    34     5    21   ar
    35    22    23   ar
    36    23    24   ar
    37    23    39    1
    38    24    25   ar
    39    24    40    1
    40    25    26   ar
    41    25    41    1
    42    26    27   ar
    43    26    42    1
    44    22    27   ar
    45    27    43    1
