@<TRIPOS>MOLECULE
4_al
 48 50 0 0 0
SMALL
GASTEIGER

@<TRIPOS>ATOM
      1 C001        6.6564   -5.5680   -0.2304 C.3     1  UNL1       -0.0587
      2 C002        7.8399   -4.7176   -0.6990 C.3     1  UNL1       -0.0215
      3 C003        7.9647   -3.4456    0.1434 C.3     1  UNL1       -0.0587
      4 C004        9.1326   -5.5132   -0.7020 C.ar    1  UNL1       -0.0448
      5 C005        9.6676   -6.0561    0.4716 C.ar    1  UNL1       -0.0577
      6 C006       10.8629   -6.7843    0.4429 C.ar    1  UNL1       -0.0523
      7 C007       11.5656   -7.0032   -0.7548 C.ar    1  UNL1        0.0005
      8 C008       12.8234   -7.7808   -0.7620 C.ar    1  UNL1        0.0760
      9 C009       13.2248   -8.5532   -1.8387 C.ar    1  UNL1        0.0041
     10 C010       14.4246   -9.2332   -1.7363 C.ar    1  UNL1        0.1225
     11 N011       14.8187  -10.0438   -2.8057 N.pl3   1  UNL1       -0.3262
     12 C012       16.2545  -10.3228   -2.9744 C.3     1  UNL1        0.0406
     13 C013       17.1055   -9.0830   -3.3697 C.3     1  UNL1        0.0956
     14 O014       16.6276   -8.4412   -4.5545 O.3     1  UNL1       -0.3856
     15 C015       18.5865   -9.3971   -3.4924 C.ar    1  UNL1       -0.0177
     16 C016       19.1578   -9.7857   -4.7143 C.ar    1  UNL1       -0.0561
     17 C017       20.5141  -10.1052   -4.7990 C.ar    1  UNL1       -0.0614
     18 C018       21.3179  -10.0418   -3.6633 C.ar    1  UNL1       -0.0617
     19 C019       20.7675   -9.6568   -2.4430 C.ar    1  UNL1       -0.0614
     20 C020       19.4110   -9.3365   -2.3570 C.ar    1  UNL1       -0.0561
     21 N021       15.1796   -9.1666   -0.6290 N.ar    1  UNL1       -0.2209
     22 C022       14.7051   -8.4078    0.3708 C.ar    1  UNL1        0.1187
     23 N023       13.5662   -7.7081    0.3624 N.ar    1  UNL1       -0.2353
     24 C024       11.0225   -6.4447   -1.9248 C.ar    1  UNL1       -0.0523
     25 C025        9.8269   -5.7145   -1.9005 C.ar    1  UNL1       -0.0577
     26 H026        5.7207   -5.0048   -0.3151 H       1  UNL1        0.0235
     27 H027        6.7633   -5.8791    0.8145 H       1  UNL1        0.0235
     28 H028        6.5592   -6.4732   -0.8400 H       1  UNL1        0.0235
     29 H029        7.6217   -4.4025   -1.7280 H       1  UNL1        0.0343
     30 H030        7.0532   -2.8429    0.0673 H       1  UNL1        0.0235
     31 H031        8.8035   -2.8297   -0.1996 H       1  UNL1        0.0235
     32 H032        8.1270   -3.6702    1.2032 H       1  UNL1        0.0235
     33 H033        9.1641   -5.9185    1.4258 H       1  UNL1        0.0621
     34 H034       11.2481   -7.1897    1.3776 H       1  UNL1        0.0624
     35 H035       12.6139   -8.6536   -2.7261 H       1  UNL1        0.0673
     36 H036       14.3966   -9.7155   -3.6731 H       1  UNL1        0.1476
     37 H037       16.3375  -11.0735   -3.7696 H       1  UNL1        0.0490
     38 H038       16.6616  -10.7889   -2.0684 H       1  UNL1        0.0490
     39 H039       16.9900   -8.3342   -2.5763 H       1  UNL1        0.0659
     40 H040       15.8905   -8.9913   -4.8915 H       1  UNL1        0.2103
     41 H041       18.5457   -9.8337   -5.6134 H       1  UNL1        0.0621
     42 H042       20.9429  -10.3961   -5.7544 H       1  UNL1        0.0618
     43 H043       22.3749  -10.2858   -3.7311 H       1  UNL1        0.0618
     44 H044       21.3960   -9.6016   -1.5579 H       1  UNL1        0.0618
     45 H045       19.0025   -9.0350   -1.3948 H       1  UNL1        0.0621
     46 H046       15.3052   -8.3540    1.2730 H       1  UNL1        0.1048
     47 H047       11.5325   -6.5523   -2.8793 H       1  UNL1        0.0624
     48 H048        9.4478   -5.2988   -2.8318 H       1  UNL1        0.0621
@<TRIPOS>BOND
     1     1     2    1
     2     1    26    1
     3     1    27    1
     4     1    28    1
     5     2     3    1
     6     2     4    1
     7     2    29    1
     8     3    30    1
     9     3    31    1
    10     3    32    1
    11     4     5   ar
    12     5     6   ar
    13     5    33    1
    14     6     7   ar
    15     6    34    1
    16     7     8    1
    17     7    24   ar
    18     8     9   ar
    19     9    10   ar
    20     9    35    1
    21    10    11    1
    22    10    21   ar
    23    11    12    1
    24    11    36    1
    25    12    13    1
    26    12    37    1
    27    12    38    1
    28    13    14    1
    29    13    15    1
    30    13    39    1
    31    14    40    1
    32    15    16   ar
    33    16    17   ar
    34    16    41    1
    35    17    18   ar
    36    17    42    1
    37    18    19   ar
    38    18    43    1
    39    19    20   ar
    40    19    44    1
    41    15    20   ar
    42    20    45    1
    43    21    22   ar
    44    22    23   ar
    45    22    46    1
    46     8    23   ar
    47    24    25   ar
    48    24    47    1
    49     4    25   ar
    50    25    48    1
