@<TRIPOS>MOLECULE
5_al
 51 53 0 0 0
SMALL
GASTEIGER

@<TRIPOS>ATOM
      1 C001        7.4346   -4.0659    0.6774 C.3     1  UNL1       -0.0560
      2 C002        7.8007   -4.5880   -0.7304 C.3     1  UNL1       -0.0127
      3 C003        6.6126   -5.4425   -1.2226 C.3     1  UNL1       -0.0560
      4 C004        7.9557   -3.3569   -1.6488 C.3     1  UNL1       -0.0560
      5 C005        9.0907   -5.4250   -0.7666 C.ar    1  UNL1       -0.0419
      6 C006        9.5433   -5.9777   -1.9773 C.ar    1  UNL1       -0.0574
      7 C007       10.7155   -6.7445   -2.0444 C.ar    1  UNL1       -0.0523
      8 C008       11.4898   -6.9986   -0.9031 C.ar    1  UNL1        0.0005
      9 C009       12.7240   -7.8107   -0.9489 C.ar    1  UNL1        0.0760
     10 C010       13.0838   -8.5711   -2.0486 C.ar    1  UNL1        0.0041
     11 C011       14.2577   -9.2987   -1.9763 C.ar    1  UNL1        0.1225
     12 N012       14.6396  -10.0482   -3.0982 N.pl3   1  UNL1       -0.3262
     13 C013       16.0421  -10.4812   -3.1473 C.3     1  UNL1        0.0406
     14 C014       17.0620   -9.3386   -3.3850 C.3     1  UNL1        0.0956
     15 O015       16.8603   -8.7804   -4.6901 O.3     1  UNL1       -0.3856
     16 C016       18.4984   -9.8149   -3.2763 C.ar    1  UNL1       -0.0177
     17 C017       19.2348   -9.5618   -2.1078 C.ar    1  UNL1       -0.0561
     18 C018       20.5442  -10.0271   -1.9775 C.ar    1  UNL1       -0.0614
     19 C019       21.1337  -10.7501   -3.0124 C.ar    1  UNL1       -0.0617
     20 C020       20.4161  -11.0064   -4.1789 C.ar    1  UNL1       -0.0614
     21 C021       19.1062  -10.5429   -4.3102 C.ar    1  UNL1       -0.0561
     22 N022       15.0459   -9.2527   -0.8934 N.ar    1  UNL1       -0.2209
     23 C023       14.6202   -8.4930    0.1245 C.ar    1  UNL1        0.1187
     24 N024       13.4899   -7.7797    0.1616 N.ar    1  UNL1       -0.2353
     25 C025       11.0428   -6.4359    0.3023 C.ar    1  UNL1       -0.0523
     26 C026        9.8699   -5.6693    0.3721 C.ar    1  UNL1       -0.0574
     27 H027        6.5074   -3.4805    0.6529 H       1  UNL1        0.0238
     28 H028        7.2775   -4.8887    1.3845 H       1  UNL1        0.0238
     29 H029        8.2165   -3.4124    1.0816 H       1  UNL1        0.0238
     30 H030        6.7362   -5.7649   -2.2622 H       1  UNL1        0.0238
     31 H031        6.4948   -6.3442   -0.6101 H       1  UNL1        0.0238
     32 H032        5.6731   -4.8798   -1.1719 H       1  UNL1        0.0238
     33 H033        7.0609   -2.7242   -1.6160 H       1  UNL1        0.0238
     34 H034        8.8105   -2.7418   -1.3433 H       1  UNL1        0.0238
     35 H035        8.1109   -3.6382   -2.6961 H       1  UNL1        0.0238
     36 H036        8.9897   -5.8134   -2.8996 H       1  UNL1        0.0621
     37 H037       11.0204   -7.1226   -3.0178 H       1  UNL1        0.0624
     38 H038       12.4703   -8.6104   -2.9390 H       1  UNL1        0.0673
     39 H039       14.0063  -10.8344   -3.2342 H       1  UNL1        0.1476
     40 H040       16.2697  -10.9692   -2.1906 H       1  UNL1        0.0490
     41 H041       16.1798  -11.2719   -3.8971 H       1  UNL1        0.0490
     42 H042       16.9078   -8.5185   -2.6754 H       1  UNL1        0.0659
     43 H043       16.0273   -8.2804   -4.6470 H       1  UNL1        0.2103
     44 H044       18.7902   -8.9977   -1.2899 H       1  UNL1        0.0621
     45 H045       21.1062   -9.8213   -1.0701 H       1  UNL1        0.0618
     46 H046       22.1550  -11.1080   -2.9132 H       1  UNL1        0.0618
     47 H047       20.8774  -11.5628   -4.9907 H       1  UNL1        0.0618
     48 H048       18.5591  -10.7415   -5.2299 H       1  UNL1        0.0621
     49 H049       15.2521   -8.4541    1.0049 H       1  UNL1        0.1048
     50 H050       11.6138   -6.5944    1.2166 H       1  UNL1        0.0624
     51 H051        9.5953   -5.2721    1.3455 H       1  UNL1        0.0621
@<TRIPOS>BOND
     1     1     2    1
     2     1    27    1
     3     1    28    1
     4     1    29    1
     5     2     3    1
     6     2     4    1
     7     2     5    1
     8     3    30    1
     9     3    31    1
    10     3    32    1
    11     4    33    1
    12     4    34    1
    13     4    35    1
    14     5     6   ar
    15     6     7   ar
    16     6    36    1
    17     7     8   ar
    18     7    37    1
    19     8     9    1
    20     8    25   ar
    21     9    10   ar
    22    10    11   ar
    23    10    38    1
    24    11    12    1
    25    11    22   ar
    26    12    13    1
    27    12    39    1
    28    13    14    1
    29    13    40    1
    30    13    41    1
    31    14    15    1
    32    14    16    1
    33    14    42    1
    34    15    43    1
    35    16    17   ar
    36    17    18   ar
    37    17    44    1
    38    18    19   ar
    39    18    45    1
    40    19    20   ar
    41    19    46    1
    42    20    21   ar
    43    20    47    1
    44    16    21   ar
    45    21    48    1
    46    22    23   ar
    47    23    24   ar
    48    23    49    1
    49     9    24   ar
    50    25    26   ar
    51    25    50    1
    52     5    26   ar
    53    26    51    1
