@<TRIPOS>MOLECULE
6_al
 42 44 0 0 0
SMALL
GASTEIGER

@<TRIPOS>ATOM
      1 O001       16.4240   -8.6264   -4.6857 O.3     1  UNL1       -0.3856
      2 C002       17.0006   -8.9809   -3.4210 C.3     1  UNL1        0.0956
      3 C003       16.3025  -10.2564   -2.8836 C.3     1  UNL1        0.0406
      4 N004       14.8424  -10.0359   -2.8333 N.pl3   1  UNL1       -0.3262
      5 C005       14.4165   -9.2633   -1.7342 C.ar    1  UNL1        0.1225
      6 C006       13.2248   -8.5709   -1.8527 C.ar    1  UNL1        0.0041
      7 C007       12.8220   -7.7922   -0.7810 C.ar    1  UNL1        0.0760
      8 C008       11.5690   -7.0082   -0.7848 C.ar    1  UNL1        0.0005
      9 C009       10.8346   -6.8244    0.4010 C.ar    1  UNL1       -0.0520
     10 C010        9.6427   -6.0914    0.4189 C.ar    1  UNL1       -0.0495
     11 C011        9.1445   -5.5145   -0.7554 C.ar    1  UNL1        0.0548
     12 C012        7.8679   -4.7106   -0.7258 C.3     1  UNL1        0.4174
     13 F013        6.8909   -5.2993    0.0196 F       1  UNL1       -0.1659
     14 F014        8.0468   -3.4694   -0.1954 F       1  UNL1       -0.1659
     15 F015        7.3240   -4.5151   -1.9600 F       1  UNL1       -0.1659
     16 C016        9.8731   -5.6735   -1.9407 C.ar    1  UNL1       -0.0495
     17 C017       11.0649   -6.4096   -1.9533 C.ar    1  UNL1       -0.0520
     18 N018       13.5585   -7.7137    0.3466 N.ar    1  UNL1       -0.2353
     19 C019       14.7058   -8.4015    0.3554 C.ar    1  UNL1        0.1187
     20 N020       15.1761   -9.1704   -0.6349 N.ar    1  UNL1       -0.2209
     21 C021       18.5075   -9.1388   -3.5365 C.ar    1  UNL1       -0.0177
     22 C022       19.1525   -9.2478   -4.7782 C.ar    1  UNL1       -0.0561
     23 C023       20.5368   -9.4193   -4.8520 C.ar    1  UNL1       -0.0614
     24 C024       21.2965   -9.4820   -3.6865 C.ar    1  UNL1       -0.0617
     25 C025       20.6741   -9.3683   -2.4460 C.ar    1  UNL1       -0.0614
     26 C026       19.2903   -9.1964   -2.3708 C.ar    1  UNL1       -0.0561
     27 H027       15.9969   -9.4461   -5.0067 H       1  UNL1        0.2103
     28 H028       16.7988   -8.1443   -2.7416 H       1  UNL1        0.0659
     29 H029       16.5490  -11.1273   -3.5028 H       1  UNL1        0.0490
     30 H030       16.6679  -10.4297   -1.8631 H       1  UNL1        0.0490
     31 H031       14.3485  -10.9293   -2.8105 H       1  UNL1        0.1476
     32 H032       12.6322   -8.6491   -2.7543 H       1  UNL1        0.0673
     33 H033       11.1948   -7.2613    1.3324 H       1  UNL1        0.0624
     34 H034        9.1058   -5.9738    1.3594 H       1  UNL1        0.0623
     35 H035        9.5199   -5.2203   -2.8662 H       1  UNL1        0.0623
     36 H036       11.6070   -6.4898   -2.8936 H       1  UNL1        0.0624
     37 H037       15.3130   -8.3308    1.2514 H       1  UNL1        0.1048
     38 H038       18.5812   -9.1900   -5.7027 H       1  UNL1        0.0621
     39 H039       21.0218   -9.4963   -5.8218 H       1  UNL1        0.0618
     40 H040       22.3740   -9.6112   -3.7455 H       1  UNL1        0.0618
     41 H041       21.2672   -9.4093   -1.5358 H       1  UNL1        0.0618
     42 H042       18.8267   -9.1038   -1.3906 H       1  UNL1        0.0621
@<TRIPOS>BOND
     1     1     2    1
     2     1    27    1
     3     2     3    1
     4     2    21    1
     5     2    28    1
     6     3     4    1
     7     3    29    1
     8     3    30    1
     9     4     5    1
    10     4    31    1
    11     5     6   ar
    12     6     7   ar
    13     6    32    1
    14     7     8    1
    15     7    18   ar
    16     8     9   ar
    17     9    10   ar
    18     9    33    1
    19    10    11   ar
    20    10    34    1
    21    11    12    1
    22    11    16   ar
    23    12    13    1
    24    12    14    1
    25    12    15    1
    26    16    17   ar
    27    16    35    1
    28     8    17   ar
    29    17    36    1
    30    18    19   ar
    31    19    20   ar
    32    19    37    1
    33     5    20   ar
    34    21    22   ar
    35    22    23   ar
    36    22    38    1
    37    23    24   ar
    38    23    39    1
    39    24    25   ar
    40    24    40    1
    41    25    26   ar
    42    25    41    1
    43    21    26   ar
    44    26    42    1
