@<TRIPOS>MOLECULE
*****
 43 45 0 0 0
SMALL
GASTEIGER

@<TRIPOS>ATOM
      1 C001        7.0512   -5.0951    1.0304 C.3     1  UNL1        0.0788
      2 O002        7.7634   -5.0795   -0.2016 O.3     1  UNL1       -0.4951
      3 C003        8.9532   -5.7516   -0.2332 C.ar    1  UNL1        0.1201
      4 C004        9.5548   -6.4090    0.8365 C.ar    1  UNL1       -0.0193
      5 C005       10.7840   -7.0604    0.6603 C.ar    1  UNL1       -0.0491
      6 C006       11.4438   -7.0782   -0.5831 C.ar    1  UNL1        0.0007
      7 C007       12.7387   -7.7740   -0.7421 C.ar    1  UNL1        0.0760
      8 C008       13.1282   -8.3785   -1.9261 C.ar    1  UNL1        0.0041
      9 C009       14.3692   -8.9886   -1.9636 C.ar    1  UNL1        0.1225
     10 N010       14.7505   -9.6348   -3.1521 N.pl3   1  UNL1       -0.3262
     11 C011       16.1242  -10.1662   -3.1779 C.3     1  UNL1        0.0406
     12 C012       17.1594   -9.0452   -3.4248 C.3     1  UNL1        0.0956
     13 O013       16.8358   -8.3681   -4.6532 O.3     1  UNL1       -0.3856
     14 C014       18.5762   -9.5769   -3.4885 C.ar    1  UNL1       -0.0177
     15 C015       19.0379  -10.2865   -4.6090 C.ar    1  UNL1       -0.0561
     16 C016       20.3431  -10.7794   -4.6498 C.ar    1  UNL1       -0.0614
     17 C017       21.2004  -10.5721   -3.5710 C.ar    1  UNL1       -0.0617
     18 C018       20.7533   -9.8741   -2.4504 C.ar    1  UNL1       -0.0614
     19 C019       19.4484   -9.3797   -2.4072 C.ar    1  UNL1       -0.0561
     20 N020       15.1669   -9.0207   -0.8863 N.ar    1  UNL1       -0.2209
     21 C021       14.7033   -8.4256    0.2208 C.ar    1  UNL1        0.1187
     22 N022       13.5296   -7.7980    0.3516 N.ar    1  UNL1       -0.2353
     23 C023       10.8222   -6.3999   -1.6457 C.ar    1  UNL1       -0.0491
     24 C024        9.5949   -5.7481   -1.4717 C.ar    1  UNL1       -0.0193
     25 H025        7.6197   -4.5928    1.8213 H       1  UNL1        0.0660
     26 H026        6.7855   -6.1177    1.3209 H       1  UNL1        0.0660
     27 H027        6.1196   -4.5388    0.8855 H       1  UNL1        0.0660
     28 H028        9.1036   -6.4355    1.8229 H       1  UNL1        0.0654
     29 H029       11.2320   -7.5671    1.5153 H       1  UNL1        0.0625
     30 H030       12.4814   -8.4039   -2.7942 H       1  UNL1        0.0673
     31 H031       14.6276   -9.0004   -3.9417 H       1  UNL1        0.1476
     32 H032       16.3558  -10.7464   -2.2756 H       1  UNL1        0.0490
     33 H033       16.1594  -10.8750   -4.0142 H       1  UNL1        0.0490
     34 H034       17.0920   -8.2829   -2.6406 H       1  UNL1        0.0659
     35 H035       17.6477   -7.9078   -4.9337 H       1  UNL1        0.2103
     36 H036       18.3802  -10.4585   -5.4590 H       1  UNL1        0.0621
     37 H037       20.6903  -11.3273   -5.5223 H       1  UNL1        0.0618
     38 H038       22.2159  -10.9583   -3.6017 H       1  UNL1        0.0618
     39 H039       21.4193   -9.7202   -1.6049 H       1  UNL1        0.0618
     40 H040       19.1153   -8.8438   -1.5195 H       1  UNL1        0.0621
     41 H041       15.3421   -8.4545    1.0965 H       1  UNL1        0.1048
     42 H042       11.2913   -6.3494   -2.6262 H       1  UNL1        0.0625
     43 H043        9.1390   -5.2284   -2.3117 H       1  UNL1        0.0654
@<TRIPOS>BOND
     1     1     2    1
     2     1    25    1
     3     1    26    1
     4     1    27    1
     5     2     3    1
     6     3     4   ar
     7     4     5   ar
     8     4    28    1
     9     5     6   ar
    10     5    29    1
    11     6     7    1
    12     6    23   ar
    13     7     8   ar
    14     8     9   ar
    15     8    30    1
    16     9    10    1
    17     9    20   ar
    18    10    11    1
    19    10    31    1
    20    11    12    1
    21    11    32    1
    22    11    33    1
    23    12    13    1
    24    12    14    1
    25    12    34    1
    26    13    35    1
    27    14    15   ar
    28    15    16   ar
    29    15    36    1
    30    16    17   ar
    31    16    37    1
    32    17    18   ar
    33    17    38    1
    34    18    19   ar
    35    18    39    1
    36    19    14   ar
    37    19    40    1
    38    20    21   ar
    39    21    22   ar
    40    21    41    1
    41    22     7   ar
    42    23    24   ar
    43    23    42    1
    44    24     3   ar
    45    24    43    1
