@<TRIPOS>MOLECULE
8_al
 46 48 0 0 0
SMALL
GASTEIGER

@<TRIPOS>ATOM
      1 C001        7.9608   -2.5538   -0.9404 C.3     1  UNL1       -0.0307
      2 C002        7.5655   -3.8192   -0.1992 C.3     1  UNL1        0.0868
      3 O003        7.8450   -4.9752   -0.9865 O.3     1  UNL1       -0.4922
      4 C004        9.0683   -5.5712   -0.8750 C.ar    1  UNL1        0.1205
      5 C005       10.1621   -5.0932   -0.1597 C.ar    1  UNL1       -0.0193
      6 C006       11.3661   -5.8148   -0.1387 C.ar    1  UNL1       -0.0491
      7 C007       11.5114   -7.0315   -0.8294 C.ar    1  UNL1        0.0007
      8 C008       12.7724   -7.8054   -0.8131 C.ar    1  UNL1        0.0760
      9 C009       13.1924   -8.5841   -1.8778 C.ar    1  UNL1        0.0041
     10 C010       14.3878   -9.2609   -1.7388 C.ar    1  UNL1        0.1225
     11 N011       14.9038  -10.0569   -2.7633 N.pl3   1  UNL1       -0.3262
     12 C012       16.3747  -10.1181   -2.7980 C.3     1  UNL1        0.0406
     13 C013       16.9738   -8.9132   -3.5687 C.3     1  UNL1        0.0956
     14 O014       16.2786   -8.7311   -4.8098 O.3     1  UNL1       -0.3856
     15 C015       18.4716   -8.9827   -3.8021 C.ar    1  UNL1       -0.0177
     16 C016       19.3573   -8.6997   -2.7496 C.ar    1  UNL1       -0.0561
     17 C017       20.7390   -8.7446   -2.9477 C.ar    1  UNL1       -0.0614
     18 C018       21.2545   -9.0676   -4.2005 C.ar    1  UNL1       -0.0617
     19 C019       20.3894   -9.3428   -5.2562 C.ar    1  UNL1       -0.0614
     20 C020       19.0078   -9.2976   -5.0599 C.ar    1  UNL1       -0.0561
     21 N021       15.1411   -9.1640   -0.6387 N.ar    1  UNL1       -0.2209
     22 C022       14.6619   -8.3839    0.3374 C.ar    1  UNL1        0.1187
     23 N023       13.5115   -7.6996    0.3118 N.ar    1  UNL1       -0.2353
     24 C024       10.3983   -7.4860   -1.5567 C.ar    1  UNL1       -0.0491
     25 C025        9.1971   -6.7681   -1.5780 C.ar    1  UNL1       -0.0193
     26 H026        9.0375   -2.5210   -1.1316 H       1  UNL1        0.0262
     27 H027        7.4647   -2.5108   -1.9158 H       1  UNL1        0.0262
     28 H028        7.6821   -1.6662   -0.3652 H       1  UNL1        0.0262
     29 H029        8.0080   -3.8736    0.8016 H       1  UNL1        0.0694
     30 H030        6.4804   -3.8043   -0.0461 H       1  UNL1        0.0694
     31 H031       10.1255   -4.1560    0.3846 H       1  UNL1        0.0654
     32 H032       12.2004   -5.3917    0.4165 H       1  UNL1        0.0625
     33 H033       12.6353   -8.6382   -2.8025 H       1  UNL1        0.0673
     34 H034       14.5756   -9.6211   -3.6305 H       1  UNL1        0.1476
     35 H035       16.7463  -10.0710   -1.7656 H       1  UNL1        0.0490
     36 H036       16.7219  -11.0566   -3.2463 H       1  UNL1        0.0490
     37 H037       16.7620   -8.0182   -2.9708 H       1  UNL1        0.0659
     38 H038       16.9457   -8.5185   -5.4856 H       1  UNL1        0.2103
     39 H039       18.9795   -8.4389   -1.7630 H       1  UNL1        0.0621
     40 H040       21.4138   -8.5253   -2.1241 H       1  UNL1        0.0618
     41 H041       22.3296   -9.1027   -4.3551 H       1  UNL1        0.0618
     42 H042       20.7884   -9.5927   -6.2363 H       1  UNL1        0.0618
     43 H043       18.3527   -9.5120   -5.9025 H       1  UNL1        0.0621
     44 H044       15.2632   -8.2982    1.2357 H       1  UNL1        0.1048
     45 H045       10.4585   -8.4174   -2.1177 H       1  UNL1        0.0625
     46 H046        8.3558   -7.1509   -2.1506 H       1  UNL1        0.0654
@<TRIPOS>BOND
     1     1     2    1
     2     1    26    1
     3     1    27    1
     4     1    28    1
     5     2     3    1
     6     2    29    1
     7     2    30    1
     8     3     4    1
     9     4     5   ar
    10     5     6   ar
    11     5    31    1
    12     6     7   ar
    13     6    32    1
    14     7     8    1
    15     7    24   ar
    16     8     9   ar
    17     9    10   ar
    18     9    33    1
    19    10    11    1
    20    10    21   ar
    21    11    12    1
    22    11    34    1
    23    12    13    1
    24    12    35    1
    25    12    36    1
    26    13    14    1
    27    13    15    1
    28    13    37    1
    29    14    38    1
    30    15    16   ar
    31    16    17   ar
    32    16    39    1
    33    17    18   ar
    34    17    40    1
    35    18    19   ar
    36    18    41    1
    37    19    20   ar
    38    19    42    1
    39    15    20   ar
    40    20    43    1
    41    21    22   ar
    42    22    23   ar
    43    22    44    1
    44     8    23   ar
    45    24    25   ar
    46    24    45    1
    47     4    25   ar
    48    25    46    1
