@<TRIPOS>MOLECULE
9_al
 46 48 0 0 0
SMALL
GASTEIGER

@<TRIPOS>ATOM
      1 O001       16.9071   -8.3514   -4.6682 O.3     1  UNL1       -0.3856
      2 C002       17.1630   -9.0468   -3.4321 C.3     1  UNL1        0.0956
      3 C003       16.0914  -10.1464   -3.2419 C.3     1  UNL1        0.0406
      4 N004       14.7328   -9.5730   -3.2185 N.pl3   1  UNL1       -0.3262
      5 C005       14.3528   -8.9715   -2.0040 C.ar    1  UNL1        0.1225
      6 C006       13.1202   -8.3435   -1.9499 C.ar    1  UNL1        0.0041
      7 C007       12.7260   -7.7883   -0.7413 C.ar    1  UNL1        0.0760
      8 C008       11.4303   -7.0939   -0.5448 C.ar    1  UNL1        0.0007
      9 C009       11.0519   -6.5238    0.6849 C.ar    1  UNL1       -0.0491
     10 C010        9.8223   -5.8651    0.8484 C.ar    1  UNL1       -0.0193
     11 C011        8.9383   -5.7522   -0.2198 C.ar    1  UNL1        0.1210
     12 O012        7.7177   -5.1395   -0.1991 O.3     1  UNL1       -0.4830
     13 C013        7.3590   -4.4349    0.9944 C.3     1  UNL1        0.1842
     14 C014        6.0281   -3.7197    0.8116 C.3     1  UNL1        0.4236
     15 F015        6.0799   -2.8036   -0.1793 F       1  UNL1       -0.1671
     16 F016        5.0240   -4.5820    0.5380 F       1  UNL1       -0.1671
     17 F017        5.6930   -3.0610    1.9488 F       1  UNL1       -0.1671
     18 C018        9.2912   -6.3088   -1.4464 C.ar    1  UNL1       -0.0193
     19 C019       10.5178   -6.9631   -1.6073 C.ar    1  UNL1       -0.0491
     20 N020       13.5236   -7.8525    0.3486 N.ar    1  UNL1       -0.2353
     21 C021       14.6881   -8.4933    0.2017 C.ar    1  UNL1        0.1187
     22 N022       15.1450   -9.0574   -0.9242 N.ar    1  UNL1       -0.2209
     23 C023       18.5721   -9.5990   -3.4541 C.ar    1  UNL1       -0.0177
     24 C024       19.4523   -9.3250   -2.3965 C.ar    1  UNL1       -0.0561
     25 C025       20.7576   -9.8195   -2.4177 C.ar    1  UNL1       -0.0614
     26 C026       21.1971  -10.5954   -3.4872 C.ar    1  UNL1       -0.0617
     27 C027       20.3273  -10.8913   -4.5353 C.ar    1  UNL1       -0.0614
     28 C028       19.0225  -10.3958   -4.5200 C.ar    1  UNL1       -0.0561
     29 H029       17.7080   -7.8293   -4.8538 H       1  UNL1        0.2103
     30 H030       17.0782   -8.2899   -2.6429 H       1  UNL1        0.0659
     31 H031       16.1172  -10.8274   -4.1025 H       1  UNL1        0.0490
     32 H032       16.2910  -10.7646   -2.3561 H       1  UNL1        0.0490
     33 H033       14.6489   -8.8917   -3.9771 H       1  UNL1        0.1476
     34 H034       12.4993   -8.2990   -2.8357 H       1  UNL1        0.0673
     35 H035       11.7177   -6.5672    1.5452 H       1  UNL1        0.0625
     36 H036        9.5964   -5.4545    1.8277 H       1  UNL1        0.0654
     37 H037        7.2629   -5.1451    1.8238 H       1  UNL1        0.0788
     38 H038        8.1248   -3.6875    1.2352 H       1  UNL1        0.0788
     39 H039        8.6118   -6.2328   -2.2920 H       1  UNL1        0.0654
     40 H040       10.7590   -7.3775   -2.5837 H       1  UNL1        0.0625
     41 H041       15.3235   -8.5616    1.0791 H       1  UNL1        0.1048
     42 H042       19.1286   -8.7195   -1.5484 H       1  UNL1        0.0621
     43 H043       21.4360   -9.5931   -1.5966 H       1  UNL1        0.0618
     44 H044       22.2163  -10.9748   -3.5031 H       1  UNL1        0.0618
     45 H045       20.6678  -11.4959   -5.3740 H       1  UNL1        0.0618
     46 H046       18.3575  -10.6287   -5.3520 H       1  UNL1        0.0621
@<TRIPOS>BOND
     1     1     2    1
     2     1    29    1
     3     2     3    1
     4     2    23    1
     5     2    30    1
     6     3     4    1
     7     3    31    1
     8     3    32    1
     9     4     5    1
    10     4    33    1
    11     5     6   ar
    12     6     7   ar
    13     6    34    1
    14     7     8    1
    15     7    20   ar
    16     8     9   ar
    17     9    10   ar
    18     9    35    1
    19    10    11   ar
    20    10    36    1
    21    11    12    1
    22    11    18   ar
    23    12    13    1
    24    13    14    1
    25    13    37    1
    26    13    38    1
    27    14    15    1
    28    14    16    1
    29    14    17    1
    30    18    19   ar
    31    18    39    1
    32     8    19   ar
    33    19    40    1
    34    20    21   ar
    35    21    22   ar
    36    21    41    1
    37     5    22   ar
    38    23    24   ar
    39    24    25   ar
    40    24    42    1
    41    25    26   ar
    42    25    43    1
    43    26    27   ar
    44    26    44    1
    45    27    28   ar
    46    27    45    1
    47    23    28   ar
    48    28    46    1
