# created with PyMOL 2.4.2
@<TRIPOS>MOLECULE
1
39 41 1                 
SMALL
USER_CHARGES
@<TRIPOS>ATOM
      1 C001        18.772    -9.100    -2.646 C.2     1  UNK0         0.000
      2 C002        20.039    -9.558    -2.945 C.2     1  UNK0         0.000
      3 C003        20.254   -10.401    -4.015 C.2     1  UNK0         0.000
      4 C004        19.152   -10.757    -4.762 C.2     1  UNK0         0.000
      5 C005        17.883   -10.297    -4.461 C.2     1  UNK0         0.000
      6 C006        17.664    -9.453    -3.390 C.2     1  UNK0         0.000
      7 C007        16.287    -8.955    -3.066 C.3     1  UNK0         0.000
      8 O008        15.634    -8.534    -4.234 O.3     1  UNK0         0.000
      9 C009        15.451    -9.998    -2.412 C.3     1  UNK0         0.000
     10 N010        14.160    -9.454    -2.084 N.pl3   1  UNK0         0.000
     11 C011        14.042    -8.409    -1.132 C.2     1  UNK0         0.000
     12 N012        15.087    -7.901    -0.467 N.2     1  UNK0         0.000
     13 C013        14.939    -6.913     0.426 C.2     1  UNK0         0.000
     14 N014        13.732    -6.395     0.687 N.2     1  UNK0         0.000
     15 C015        12.624    -6.860     0.051 C.2     1  UNK0         0.000
     16 C016        11.323    -6.261     0.369 C.2     1  UNK0         0.000
     17 C017        10.152    -6.667    -0.225 C.2     1  UNK0         0.000
     18 C018         8.932    -6.065     0.112 C.2     1  UNK0         0.000
     19 C019         8.866    -5.051     1.043 C.2     1  UNK0         0.000
     20 C020        10.042    -4.647     1.636 C.2     1  UNK0         0.000
     21 C021        11.239    -5.246     1.299 C.2     1  UNK0         0.000
     22 C022        12.789    -7.862    -0.853 C.2     1  UNK0         0.000
     23 H023        18.597    -8.436    -1.805 H       1  UNK0         0.000
     24 H024        20.908    -9.278    -2.358 H       1  UNK0         0.000
     25 H025        21.251   -10.763    -4.253 H       1  UNK0         0.000
     26 H026        19.282   -11.425    -5.620 H       1  UNK0         0.000
     27 H027        17.023   -10.594    -5.068 H       1  UNK0         0.000
     28 H028        16.357    -8.073    -2.417 H       1  UNK0         0.000
     29 H029        15.477    -9.258    -4.868 H       1  UNK0         0.000
     30 H030        15.326   -10.906    -3.050 H       1  UNK0         0.000
     31 H031        15.903   -10.357    -1.459 H       1  UNK0         0.000
     32 H032        13.309    -9.829    -2.546 H       1  UNK0         0.000
     33 H033        15.800    -6.523     0.947 H       1  UNK0         0.000
     34 H034        10.162    -7.452    -0.953 H       1  UNK0         0.000
     35 H035         8.013    -6.392    -0.362 H       1  UNK0         0.000
     36 H036         7.907    -4.599     1.288 H       1  UNK0         0.000
     37 H037         9.975    -3.844     2.371 H       1  UNK0         0.000
     38 H038        12.163    -4.934     1.758 H       1  UNK0         0.000
     39 H039        11.946    -8.273    -1.389 H       1  UNK0         0.000
@<TRIPOS>BOND
1 1 2 2
2 1 23 1
3 2 3 1
4 2 24 1
5 3 4 2
6 3 25 1
7 4 5 1
8 4 26 1
9 5 6 2
10 5 27 1
11 1 6 1
12 6 7 1
13 7 8 1
14 7 9 1
15 7 28 1
16 8 29 1
17 9 10 1
18 9 30 1
19 9 31 1
20 10 11 1
21 10 32 1
22 11 12 2
23 12 13 1
24 13 14 2
25 13 33 1
26 14 15 1
27 15 16 1
28 15 22 2
29 16 17 2
30 17 18 1
31 17 34 1
32 18 19 2
33 18 35 1
34 19 20 1
35 19 36 1
36 20 21 2
37 20 37 1
38 16 21 1
39 21 38 1
40 11 22 1
41 22 39 1
@<TRIPOS>SUBSTRUCTURE
1	UNK0	1	GROUP	1 ****	UNK
