# created with PyMOL 2.4.2
@<TRIPOS>MOLECULE
4
48 50 1                 
SMALL
USER_CHARGES
@<TRIPOS>ATOM
      1 C001        17.828   -10.274    -4.495 C.2     1  UNK0         0.000
      2 C002        19.063   -10.755    -4.868 C.2     1  UNK0         0.000
      3 C003        20.158   -10.406    -4.119 C.2     1  UNK0         0.000
      4 C004        20.042    -9.591    -3.013 C.2     1  UNK0         0.000
      5 C005        18.779    -9.127    -2.668 C.2     1  UNK0         0.000
      6 C006        17.666    -9.460    -3.398 C.2     1  UNK0         0.000
      7 C007        16.343    -8.946    -3.000 C.3     1  UNK0         0.000
      8 O008        15.734    -8.496    -4.198 O.3     1  UNK0         0.000
      9 C009        15.491    -9.994    -2.339 C.3     1  UNK0         0.000
     10 N010        14.192    -9.448    -2.028 N.pl3   1  UNK0         0.000
     11 C011        14.059    -8.392    -1.075 C.2     1  UNK0         0.000
     12 N012        15.107    -7.895    -0.409 N.2     1  UNK0         0.000
     13 C013        14.917    -6.907     0.468 C.2     1  UNK0         0.000
     14 N014        13.693    -6.411     0.687 N.2     1  UNK0         0.000
     15 C015        12.576    -6.854     0.057 C.2     1  UNK0         0.000
     16 C016        11.269    -6.270     0.343 C.2     1  UNK0         0.000
     17 C017        10.132    -6.704    -0.283 C.2     1  UNK0         0.000
     18 C018         8.922    -6.095     0.044 C.2     1  UNK0         0.000
     19 C019         8.828    -5.081     0.968 C.2     1  UNK0         0.000
     20 C020         7.520    -4.441     1.304 C.3     1  UNK0         0.000
     21 C021         6.496    -5.460     1.697 C.3     1  UNK0         0.000
     22 C022         7.033    -3.778     0.012 C.3     1  UNK0         0.000
     23 C023         9.995    -4.671     1.577 C.2     1  UNK0         0.000
     24 C024        11.198    -5.260     1.266 C.2     1  UNK0         0.000
     25 C025        12.781    -7.872    -0.845 C.2     1  UNK0         0.000
     26 H026        16.929   -10.521    -5.053 H       1  UNK0         0.000
     27 H027        19.182   -11.386    -5.720 H       1  UNK0         0.000
     28 H028        21.157   -10.767    -4.384 H       1  UNK0         0.000
     29 H029        20.868    -9.296    -2.403 H       1  UNK0         0.000
     30 H030        18.678    -8.485    -1.798 H       1  UNK0         0.000
     31 H031        16.445    -8.093    -2.304 H       1  UNK0         0.000
     32 H032        16.301    -7.707    -4.467 H       1  UNK0         0.000
     33 H033        15.395   -10.908    -2.961 H       1  UNK0         0.000
     34 H034        15.933   -10.330    -1.380 H       1  UNK0         0.000
     35 H035        13.313    -9.820    -2.499 H       1  UNK0         0.000
     36 H036        15.761    -6.497     1.013 H       1  UNK0         0.000
     37 H037        10.121    -7.495    -1.019 H       1  UNK0         0.000
     38 H038         7.992    -6.416    -0.436 H       1  UNK0         0.000
     39 H039         7.704    -3.664     2.071 H       1  UNK0         0.000
     40 H040         6.054    -5.866     0.747 H       1  UNK0         0.000
     41 H041         5.703    -4.967     2.280 H       1  UNK0         0.000
     42 H042         6.952    -6.282     2.304 H       1  UNK0         0.000
     43 H043         7.467    -2.760    -0.085 H       1  UNK0         0.000
     44 H044         5.929    -3.788    -0.055 H       1  UNK0         0.000
     45 H045         7.414    -4.371    -0.844 H       1  UNK0         0.000
     46 H046         9.926    -3.866     2.310 H       1  UNK0         0.000
     47 H047        12.083    -4.905     1.770 H       1  UNK0         0.000
     48 H048        11.937    -8.279    -1.388 H       1  UNK0         0.000
@<TRIPOS>BOND
1 1 2 2
2 1 26 1
3 2 3 1
4 2 27 1
5 3 4 2
6 3 28 1
7 4 5 1
8 4 29 1
9 5 6 2
10 5 30 1
11 1 6 1
12 6 7 1
13 7 8 1
14 7 9 1
15 7 31 1
16 8 32 1
17 9 10 1
18 9 33 1
19 9 34 1
20 10 11 1
21 10 35 1
22 11 12 2
23 12 13 1
24 13 14 2
25 13 36 1
26 14 15 1
27 15 16 1
28 15 25 2
29 16 17 2
30 17 18 1
31 17 37 1
32 18 19 2
33 18 38 1
34 19 20 1
35 19 23 1
36 20 21 1
37 20 22 1
38 20 39 1
39 21 40 1
40 21 41 1
41 21 42 1
42 22 43 1
43 22 44 1
44 22 45 1
45 23 24 2
46 23 46 1
47 16 24 1
48 24 47 1
49 11 25 1
50 25 48 1
@<TRIPOS>SUBSTRUCTURE
1	UNK0	1	GROUP	1 ****	UNK
