@<TRIPOS>MOLECULE
physical_ligands/4/lig.pdb
 48 50 0 0 0
SMALL
GASTEIGER

@<TRIPOS>ATOM
      1 C001       16.3660   -8.9830   -3.1470 C.3     1  LIG1        0.0956
      2 H002       16.4330   -8.0450   -2.5530 H       1  LIG1        0.0659
      3 O003       15.7430   -8.6500   -4.3780 O.3     1  LIG1       -0.3856
      4 H004       15.4690   -9.4500   -4.8250 H       1  LIG1        0.2103
      5 C005       15.4950  -10.0210   -2.3810 C.3     1  LIG1        0.0406
      6 H006       15.3390  -10.9100   -3.0330 H       1  LIG1        0.0490
      7 H007       16.0490  -10.3780   -1.4830 H       1  LIG1        0.0490
      8 N008       14.1550   -9.5380   -1.9360 N.pl3   1  LIG1       -0.3262
      9 H009       13.3740   -9.6630   -2.5730 H       1  LIG1        0.1476
     10 C010       14.0280   -8.4950   -1.0640 C.ar    1  LIG1        0.1225
     11 N011       15.1060   -8.0460   -0.3750 N.ar    1  LIG1       -0.2209
     12 C012       14.9160   -6.9890    0.4620 C.ar    1  LIG1        0.1187
     13 H013       15.7800   -6.5890    0.9960 H       1  LIG1        0.1048
     14 N014       13.7120   -6.4060    0.7130 N.ar    1  LIG1       -0.2353
     15 C015       12.6680   -6.8970    0.0380 C.ar    1  LIG1        0.0760
     16 C016       11.3140   -6.2650    0.3680 C.ar    1  LIG1        0.0005
     17 C017       12.7720   -7.9470   -0.9050 C.ar    1  LIG1        0.0041
     18 H018       11.9340   -8.3360   -1.4520 H       1  LIG1        0.0673
     19 C019       17.7440   -9.5170   -3.3730 C.ar    1  LIG1       -0.0177
     20 C020       20.1240   -9.5190   -2.8630 C.ar    1  LIG1       -0.0614
     21 H021       20.9570   -9.2160   -2.2470 H       1  LIG1        0.0618
     22 C022       20.3600  -10.3130   -3.9890 C.ar    1  LIG1       -0.0617
     23 H023       21.3510  -10.6700   -4.2250 H       1  LIG1        0.0618
     24 C024       19.2990  -10.6750   -4.8130 C.ar    1  LIG1       -0.0614
     25 H025       19.4790  -11.3460   -5.6230 H       1  LIG1        0.0618
     26 C026       10.1290   -6.7100   -0.2770 C.ar    1  LIG1       -0.0523
     27 H027       10.1260   -7.5010   -1.0130 H       1  LIG1        0.0624
     28 C028       11.1740   -5.2310    1.3350 C.ar    1  LIG1       -0.0523
     29 H029       12.0420   -4.8490    1.8570 H       1  LIG1        0.0624
     30 C030       17.9980  -10.2890   -4.5160 C.ar    1  LIG1       -0.0561
     31 H031       17.1770  -10.6080   -5.1460 H       1  LIG1        0.0621
     32 C032       18.8160   -9.1220   -2.5500 C.ar    1  LIG1       -0.0561
     33 H033       18.6310   -8.4730   -1.7080 H       1  LIG1        0.0621
     34 C061        8.8910   -6.1330    0.0060 C.ar    1  LIG1       -0.0577
     35 H062        8.0160   -6.4600   -0.5250 H       1  LIG1        0.0621
     36 C063        8.7850   -5.1210    0.9570 C.ar    1  LIG1       -0.0448
     37 C064        9.9200   -4.6920    1.6330 C.ar    1  LIG1       -0.0577
     38 H065        9.7890   -3.9360    2.3830 H       1  LIG1        0.0621
     39 C066        7.4730   -4.4500    1.2330 C.3     1  LIG1       -0.0215
     40 H067        7.5770   -3.7380    2.0770 H       1  LIG1        0.0343
     41 C068        7.0140   -3.7310   -0.0500 C.3     1  LIG1       -0.0587
     42 H069        7.4750   -2.7260   -0.1320 H       1  LIG1        0.0235
     43 H070        5.9120   -3.6350   -0.0480 H       1  LIG1        0.0235
     44 H071        7.2920   -4.2990   -0.9630 H       1  LIG1        0.0235
     45 C072        6.4500   -5.4920    1.6850 C.3     1  LIG1       -0.0587
     46 H073        6.0280   -6.0160    0.8040 H       1  LIG1        0.0235
     47 H074        5.6120   -5.0020    2.2190 H       1  LIG1        0.0235
     48 H075        6.9120   -6.2290    2.3800 H       1  LIG1        0.0235
@<TRIPOS>BOND
     1    25    24    1
     2    31    30    1
     3     4     3    1
     4    24    30   ar
     5    24    22   ar
     6    30    19   ar
     7     3     1    1
     8    23    22    1
     9    22    20   ar
    10    19     1    1
    11    19    32   ar
    12     1     2    1
    13     1     5    1
    14     6     5    1
    15    20    32   ar
    16    20    21    1
    17     9     8    1
    18    32    33    1
    19     5     8    1
    20     5     7    1
    21     8    10    1
    22    18    17    1
    23    10    17   ar
    24    10    11   ar
    25    27    26    1
    26    44    41    1
    27    17    15   ar
    28    35    34    1
    29    11    12   ar
    30    26    34   ar
    31    26    16   ar
    32    42    41    1
    33    41    43    1
    34    41    39    1
    35    34    36   ar
    36    15    16    1
    37    15    14   ar
    38    16    28   ar
    39    12    14   ar
    40    12    13    1
    41    46    45    1
    42    36    39    1
    43    36    37   ar
    44    39    45    1
    45    39    40    1
    46    28    37   ar
    47    28    29    1
    48    37    38    1
    49    45    47    1
    50    45    48    1
