@<TRIPOS>MOLECULE
JXV
 45 48 0 0 0
SMALL
GASTEIGER

@<TRIPOS>ATOM
      1 C           2.2880    0.4670   -0.0850 C.ar    1  LIG1        0.0042
      2 C           3.6470    0.7590    0.0240 C.ar    1  LIG1       -0.0071
      3 C           1.8680   -0.8600   -0.1610 C.ar    1  LIG1       -0.0489
      4 C           4.5750   -0.2680    0.0570 C.ar    1  LIG1        0.1627
      5 C           2.7950   -1.8800   -0.1270 C.ar    1  LIG1       -0.0157
      6 C           4.1490   -1.5910   -0.0170 C.ar    1  LIG1        0.1621
      7 C           1.2930    1.5640   -0.1140 C.ar    1  LIG1        0.0761
      8 C          -0.0720    1.2820   -0.1120 C.ar    1  LIG1        0.0041
      9 C          -2.8480    0.7530   -0.1110 C.3     1  LIG1        0.0406
     10 C          -4.3780    0.7830   -0.1180 C.3     1  LIG1        0.0956
     11 C          -5.7290   -2.5590   -1.2410 C.ar    1  LIG1       -0.0614
     12 C          -5.2440   -1.2650   -1.2680 C.ar    1  LIG1       -0.0561
     13 C          -5.0680   -1.2800    1.1200 C.ar    1  LIG1       -0.0561
     14 O          -4.8460    1.4920    1.0310 O.3     1  LIG1       -0.3856
     15 C           6.7710   -1.0280    0.5610 C.3     1  LIG1        0.1237
     16 C          -0.9660    2.3510   -0.1400 C.ar    1  LIG1        0.1225
     17 C           0.8110    3.8190   -0.1670 C.ar    1  LIG1        0.1187
     18 C          -5.8850   -3.2140   -0.0330 C.ar    1  LIG1       -0.0617
     19 C          -5.5540   -2.5740    1.1470 C.ar    1  LIG1       -0.0614
     20 C          -4.9080   -0.6280   -0.0880 C.ar    1  LIG1       -0.0177
     21 C           6.4120   -2.2810   -0.2490 C.3     1  LIG1        0.1237
     22 N          -0.4870    3.5930   -0.1670 N.ar    1  LIG1       -0.2209
     23 N           1.6890    2.8380   -0.1360 N.ar    1  LIG1       -0.2353
     24 N          -2.3330    2.1240   -0.1400 N.pl3   1  LIG1       -0.3262
     25 O           5.0460   -2.6130    0.0210 O.3     1  LIG1       -0.4849
     26 O           5.8980    0.0330    0.1570 O.3     1  LIG1       -0.4849
     27 H           3.9760    1.7860    0.0830 H       1  LIG1        0.0662
     28 H           0.8160   -1.0890   -0.2460 H       1  LIG1        0.0625
     29 H           2.4670   -2.9080   -0.1850 H       1  LIG1        0.0655
     30 H          -0.4270    0.2630   -0.0910 H       1  LIG1        0.0673
     31 H          -2.4980    0.2520    0.7910 H       1  LIG1        0.0490
     32 H          -2.4910    0.2120   -0.9880 H       1  LIG1        0.0490
     33 H          -4.7280    1.2830   -1.0210 H       1  LIG1        0.0659
     34 H          -5.9920   -3.0570   -2.1630 H       1  LIG1        0.0618
     35 H          -5.1270   -0.7520   -2.2110 H       1  LIG1        0.0621
     36 H          -4.8060   -0.7830    2.0420 H       1  LIG1        0.0621
     37 H          -4.5710    1.1010    1.8720 H       1  LIG1        0.2103
     38 H           6.6380   -1.2270    1.6250 H       1  LIG1        0.0731
     39 H           7.8060   -0.7480    0.3660 H       1  LIG1        0.0731
     40 H           1.1650    4.8390   -0.1850 H       1  LIG1        0.1048
     41 H          -6.2640   -4.2240   -0.0120 H       1  LIG1        0.0618
     42 H          -5.6760   -3.0860    2.0900 H       1  LIG1        0.0618
     43 H           6.5380   -2.0790   -1.3130 H       1  LIG1        0.0731
     44 H           7.0580   -3.1080    0.0470 H       1  LIG1        0.0731
     45 H          -2.9490    2.8730   -0.1600 H       1  LIG1        0.1476
@<TRIPOS>BOND
     1     1     2   ar
     2     1     3   ar
     3     2     4   ar
     4     2    27    1
     5     3     5   ar
     6     3    28    1
     7     4     6   ar
     8     4    26    1
     9     5     6   ar
    10     5    29    1
    11     6    25    1
    12     1     7    1
    13     7     8   ar
    14     8    30    1
    15     9    24    1
    16     9    31    1
    17     9    32    1
    18     9    10    1
    19    10    14    1
    20    10    33    1
    21    11    12   ar
    22    11    34    1
    23    12    20   ar
    24    12    35    1
    25    13    20   ar
    26    13    36    1
    27    14    37    1
    28    15    21    1
    29    15    38    1
    30    15    39    1
    31     8    16   ar
    32    17    23   ar
    33    17    40    1
    34    11    18   ar
    35    18    19   ar
    36    18    41    1
    37    13    19   ar
    38    19    42    1
    39    10    20    1
    40    21    43    1
    41    21    44    1
    42    16    22   ar
    43    17    22   ar
    44     7    23   ar
    45    16    24    1
    46    24    45    1
    47    21    25    1
    48    15    26    1
