@<TRIPOS>MOLECULE
*****
 38 40 0 0 0
SMALL
GASTEIGER

@<TRIPOS>ATOM
      1 C001       -4.7202   -0.0439   -0.1737 C.3     1  UNL1        0.0790
      2 O002       -3.7587   -1.0223    0.1969 O.3     1  UNL1       -0.4914
      3 C003       -2.4329   -0.6737    0.1289 C.ar    1  UNL1        0.1635
      4 C004       -1.9627    0.5759   -0.2899 C.ar    1  UNL1        0.0098
      5 C005       -0.6076    0.8758   -0.3383 C.ar    1  UNL1        0.0797
      6 N006       -0.2444    2.0884   -0.7662 N.ar    1  UNL1       -0.2352
      7 C007        1.0669    2.3432   -0.8233 C.ar    1  UNL1        0.1188
      8 N008        2.0461    1.5081   -0.4732 N.ar    1  UNL1       -0.2189
      9 C009        1.6671    0.3030   -0.0001 C.ar    1  UNL1        0.1459
     10 N010        2.6939   -0.6058    0.3843 N.pl3   1  UNL1       -0.2499
     11 N011        4.0203   -0.2315    0.3215 N.pl3   1  UNL1       -0.2654
     12 C012        4.7022    0.4172    1.3836 C.ar    1  UNL1        0.0459
     13 C013        4.2055    0.4523    2.6951 C.ar    1  UNL1       -0.0366
     14 C014        4.9442    1.0428    3.7249 C.ar    1  UNL1       -0.0232
     15 C015        6.1965    1.5808    3.4541 C.ar    1  UNL1        0.1417
     16 F016        6.8889    2.1404    4.4570 F       1  UNL1       -0.2040
     17 C017        6.7209    1.5284    2.1668 C.ar    1  UNL1        0.0779
     18 CL018       8.2802    2.1751    1.8266 Cl      1  UNL1       -0.0805
     19 C019        5.9823    0.9397    1.1381 C.ar    1  UNL1       -0.0182
     20 C020        0.3172   -0.0971    0.0575 C.ar    1  UNL1        0.0452
     21 C021       -0.1485   -1.3743    0.4677 C.ar    1  UNL1       -0.0038
     22 C022       -1.5135   -1.6655    0.5034 C.ar    1  UNL1        0.1623
     23 O023       -2.0429   -2.8685    0.8932 O.3     1  UNL1       -0.4914
     24 C024       -1.1468   -3.9451    1.1294 C.3     1  UNL1        0.0790
     25 H025       -4.6665    0.8311    0.4822 H       1  UNL1        0.0660
     26 H026       -4.6087    0.2405   -1.2252 H       1  UNL1        0.0660
     27 H027       -5.7128   -0.4885   -0.0535 H       1  UNL1        0.0660
     28 H028       -2.6492    1.3585   -0.5981 H       1  UNL1        0.0677
     29 H029        1.3613    3.3215   -1.1877 H       1  UNL1        0.1048
     30 H030        2.4441   -1.0957    1.2397 H       1  UNL1        0.1715
     31 H031        4.2414    0.2279   -0.5689 H       1  UNL1        0.1700
     32 H032        3.2320    0.0369    2.9346 H       1  UNL1        0.0637
     33 H033        4.5506    1.0829    4.7359 H       1  UNL1        0.0647
     34 H034        6.4067    0.8860    0.1387 H       1  UNL1        0.0652
     35 H035        0.5768   -2.1316    0.7433 H       1  UNL1        0.0663
     36 H036       -0.5108   -3.7426    1.9972 H       1  UNL1        0.0660
     37 H037       -1.7436   -4.8340    1.3551 H       1  UNL1        0.0660
     38 H038       -0.5460   -4.1642    0.2404 H       1  UNL1        0.0660
@<TRIPOS>BOND
     1     1     2    1
     2     2     3    1
     3     3     4   ar
     4     4     5   ar
     5     5     6   ar
     6     6     7   ar
     7     7     8   ar
     8     8     9   ar
     9     9    10    1
    10    10    11    1
    11    11    12    1
    12    12    13   ar
    13    13    14   ar
    14    14    15   ar
    15    15    16    1
    16    15    17   ar
    17    17    18    1
    18    17    19   ar
    19     9    20   ar
    20    20    21   ar
    21    21    22   ar
    22    22    23    1
    23    23    24    1
    24    22     3   ar
    25    20     5   ar
    26    19    12   ar
    27     1    25    1
    28     1    26    1
    29     1    27    1
    30     4    28    1
    31     7    29    1
    32    10    30    1
    33    11    31    1
    34    13    32    1
    35    14    33    1
    36    19    34    1
    37    21    35    1
    38    24    36    1
    39    24    37    1
    40    24    38    1
