@<TRIPOS>MOLECULE
*****
 29 31 0 0 0
SMALL
GASTEIGER

@<TRIPOS>ATOM
      1 O001       -3.7342   -0.9934    0.1523 O.3     1  UNL1       -0.5067
      2 C002       -2.4079   -0.6812    0.1156 C.ar    1  UNL1        0.1189
      3 C003       -1.5072   -1.6442    0.5363 C.ar    1  UNL1       -0.0194
      4 C004       -0.1455   -1.3546    0.5096 C.ar    1  UNL1       -0.0458
      5 C005        0.3204   -0.0938    0.0535 C.ar    1  UNL1        0.0407
      6 C006        1.6742    0.2957   -0.0194 C.ar    1  UNL1        0.1339
      7 N007        2.6772   -0.6475    0.3379 N.pl3   1  UNL1       -0.2988
      8 C008        4.0507   -0.4217    0.5837 C.ar    1  UNL1        0.0334
      9 C009        4.5393    0.7863    1.0979 C.ar    1  UNL1       -0.0404
     10 C010        5.8962    0.9526    1.3942 C.ar    1  UNL1       -0.0590
     11 C011        6.7860   -0.1008    1.2040 C.ar    1  UNL1       -0.0476
     12 C012        6.3083   -1.3183    0.7294 C.ar    1  UNL1        0.0196
     13 BR013       7.5038   -2.7647    0.4923 Br      1  UNL1       -0.0502
     14 C014        4.9534   -1.4858    0.4330 C.ar    1  UNL1       -0.0265
     15 N015        2.0385    1.5235   -0.4311 N.ar    1  UNL1       -0.2200
     16 C016        1.0584    2.3559   -0.7909 C.ar    1  UNL1        0.1187
     17 N017       -0.2514    2.0877   -0.7804 N.ar    1  UNL1       -0.2352
     18 C018       -0.6105    0.8734   -0.3568 C.ar    1  UNL1        0.0795
     19 C019       -1.9646    0.5632   -0.3234 C.ar    1  UNL1        0.0059
     20 H020       -4.2480   -0.2276   -0.1552 H       1  UNL1        0.2921
     21 H021       -1.8611   -2.6093    0.8881 H       1  UNL1        0.0654
     22 H022        0.5523   -2.1102    0.8629 H       1  UNL1        0.0626
     23 H023        2.5290   -1.4955   -0.1996 H       1  UNL1        0.1536
     24 H024        3.8644    1.6183    1.2824 H       1  UNL1        0.0636
     25 H025        6.2511    1.9046    1.7804 H       1  UNL1        0.0618
     26 H026        7.8384    0.0337    1.4373 H       1  UNL1        0.0629
     27 H027        4.6022   -2.4508    0.0785 H       1  UNL1        0.0647
     28 H028        1.3542    3.3440   -1.1265 H       1  UNL1        0.1048
     29 H029       -2.6739    1.3196   -0.6471 H       1  UNL1        0.0675
@<TRIPOS>BOND
     1     1     2    1
     2     2     3   ar
     3     3     4   ar
     4     4     5   ar
     5     5     6   ar
     6     6     7    1
     7     7     8    1
     8     8     9   ar
     9     9    10   ar
    10    10    11   ar
    11    11    12   ar
    12    12    13    1
    13    12    14   ar
    14     6    15   ar
    15    15    16   ar
    16    16    17   ar
    17    17    18   ar
    18    18    19   ar
    19    19     2   ar
    20    18     5   ar
    21    14     8   ar
    22     1    20    1
    23     3    21    1
    24     4    22    1
    25     7    23    1
    26     9    24    1
    27    10    25    1
    28    11    26    1
    29    14    27    1
    30    16    28    1
    31    19    29    1
