@<TRIPOS>MOLECULE
*****
 38 41 0 0 0
SMALL
GASTEIGER

@<TRIPOS>ATOM
      1 C001       -4.7117   -0.0889   -0.2678 C.3     1  UNL1        0.0790
      2 O002       -3.7497   -1.0469    0.1513 O.3     1  UNL1       -0.4914
      3 C003       -2.4264   -0.6847    0.1072 C.ar    1  UNL1        0.1635
      4 C004       -1.9600    0.5607   -0.3286 C.ar    1  UNL1        0.0098
      5 C005       -0.6070    0.8735   -0.3550 C.ar    1  UNL1        0.0797
      6 N006       -0.2474    2.0886   -0.7762 N.ar    1  UNL1       -0.2352
      7 C007        1.0619    2.3586   -0.7861 C.ar    1  UNL1        0.1187
      8 N008        2.0396    1.5202   -0.4399 N.ar    1  UNL1       -0.2199
      9 C009        1.6743    0.2980   -0.0142 C.ar    1  UNL1        0.1354
     10 N010        2.6760   -0.6437    0.3291 N.pl3   1  UNL1       -0.2781
     11 C011        3.9465   -0.2987    0.6514 C.ar    1  UNL1        0.1645
     12 N012        4.3197    0.7614    1.3305 N.ar    1  UNL1       -0.2246
     13 C013        5.6923    0.7829    1.4928 C.ar    1  UNL1        0.0803
     14 C014        6.4319    1.7877    2.1490 C.ar    1  UNL1       -0.0351
     15 C015        7.8231    1.6785    2.2436 C.ar    1  UNL1       -0.0597
     16 C016        8.4821    0.5827    1.6952 C.ar    1  UNL1       -0.0606
     17 C017        7.7707   -0.4280    1.0408 C.ar    1  UNL1       -0.0458
     18 C018        6.3738   -0.3060    0.9513 C.ar    1  UNL1        0.0408
     19 S019        5.2336   -1.3675    0.2249 S.2     1  UNL1       -0.0521
     20 C020        0.3206   -0.0910    0.0565 C.ar    1  UNL1        0.0442
     21 C021       -0.1432   -1.3517    0.5145 C.ar    1  UNL1       -0.0038
     22 C022       -1.5067   -1.6504    0.5437 C.ar    1  UNL1        0.1623
     23 O023       -2.0321   -2.8450    0.9640 O.3     1  UNL1       -0.4914
     24 C024       -1.1566   -3.7680    1.5962 C.3     1  UNL1        0.0790
     25 H025       -4.6861    0.8013    0.3693 H       1  UNL1        0.0660
     26 H026       -4.5747    0.1731   -1.3221 H       1  UNL1        0.0660
     27 H027       -5.7021   -0.5426   -0.1645 H       1  UNL1        0.0660
     28 H028       -2.6475    1.3322   -0.6615 H       1  UNL1        0.0677
     29 H029        1.3587    3.3492   -1.1129 H       1  UNL1        0.1048
     30 H030        2.5868   -1.4710   -0.2461 H       1  UNL1        0.1555
     31 H031        5.9112    2.6399    2.5743 H       1  UNL1        0.0639
     32 H032        8.3893    2.4569    2.7496 H       1  UNL1        0.0618
     33 H033        9.5648    0.5099    1.7757 H       1  UNL1        0.0618
     34 H034        8.2862   -1.2827    0.6138 H       1  UNL1        0.0629
     35 H035        0.5840   -2.0807    0.8551 H       1  UNL1        0.0663
     36 H036       -0.6687   -3.3205    2.4686 H       1  UNL1        0.0660
     37 H037       -0.4195   -4.1574    0.8867 H       1  UNL1        0.0660
     38 H038       -1.7575   -4.6123    1.9477 H       1  UNL1        0.0660
@<TRIPOS>BOND
     1     1     2    1
     2     2     3    1
     3     3     4   ar
     4     4     5   ar
     5     5     6   ar
     6     6     7   ar
     7     7     8   ar
     8     8     9   ar
     9     9    10    1
    10    10    11    1
    11    11    12   ar
    12    12    13   ar
    13    13    14   ar
    14    14    15   ar
    15    15    16   ar
    16    16    17   ar
    17    17    18   ar
    18    18    19   ar
    19     9    20   ar
    20    20    21   ar
    21    21    22   ar
    22    22    23    1
    23    23    24    1
    24    22     3   ar
    25    20     5   ar
    26    19    11   ar
    27    18    13   ar
    28     1    25    1
    29     1    26    1
    30     1    27    1
    31     4    28    1
    32     7    29    1
    33    10    30    1
    34    14    31    1
    35    15    32    1
    36    16    33    1
    37    17    34    1
    38    21    35    1
    39    24    36    1
    40    24    37    1
    41    24    38    1
