@<TRIPOS>MOLECULE
*****
 34 37 0 0 0
SMALL
GASTEIGER

@<TRIPOS>ATOM
      1 CL001      -4.0983   -1.0159    0.1672 Cl      1  UNL1       -0.0835
      2 C002       -2.4120   -0.6778    0.1267 C.ar    1  UNL1        0.0430
      3 C003       -1.5044   -1.6552    0.5107 C.ar    1  UNL1       -0.0426
      4 C004       -0.1421   -1.3667    0.4738 C.ar    1  UNL1       -0.0479
      5 C005        0.3189   -0.0925    0.0548 C.ar    1  UNL1        0.0402
      6 C006        1.6720    0.2962   -0.0096 C.ar    1  UNL1        0.1299
      7 N007        2.6717   -0.6199    0.3799 N.pl3   1  UNL1       -0.3244
      8 C008        4.0357   -0.1143    0.2901 C.3     1  UNL1        0.0358
      9 C009        4.9804   -1.1900    0.7800 C.ar    1  UNL1       -0.0267
     10 C010        5.2135   -2.3403   -0.0118 C.ar    1  UNL1       -0.0534
     11 C011        6.0704   -3.3554    0.4245 C.ar    1  UNL1       -0.0158
     12 C012        6.6744   -3.1981    1.6522 C.ar    1  UNL1        0.1662
     13 C013        6.4501   -2.0885    2.4324 C.ar    1  UNL1        0.1665
     14 C014        5.6107   -1.0708    2.0296 C.ar    1  UNL1       -0.0115
     15 O015        7.1372   -2.1314    3.6054 O.3     1  UNL1       -0.4526
     16 C016        7.8251   -3.3927    3.4702 C.3     1  UNL1        0.2332
     17 O017        7.5312   -4.0782    2.2355 O.3     1  UNL1       -0.4526
     18 N018        2.0429    1.5066   -0.4601 N.ar    1  UNL1       -0.2203
     19 C019        1.0624    2.3429   -0.8167 C.ar    1  UNL1        0.1187
     20 N020       -0.2500    2.0916   -0.7695 N.ar    1  UNL1       -0.2352
     21 C021       -0.6123    0.8795   -0.3427 C.ar    1  UNL1        0.0774
     22 C022       -1.9655    0.5732   -0.2961 C.ar    1  UNL1       -0.0172
     23 H023       -1.8450   -2.6360    0.8315 H       1  UNL1        0.0632
     24 H024        0.5665   -2.1421    0.7575 H       1  UNL1        0.0626
     25 H025        2.4704   -0.9525    1.3186 H       1  UNL1        0.1478
     26 H026        4.2995    0.1378   -0.7451 H       1  UNL1        0.0511
     27 H027        4.1629    0.7893    0.9003 H       1  UNL1        0.0511
     28 H028        4.7126   -2.4410   -0.9737 H       1  UNL1        0.0622
     29 H029        6.2512   -4.2371   -0.1796 H       1  UNL1        0.0655
     30 H030        5.4519   -0.2088    2.6688 H       1  UNL1        0.0658
     31 H031        8.9048   -3.2103    3.5218 H       1  UNL1        0.1166
     32 H032        7.5377   -4.0396    4.3071 H       1  UNL1        0.1166
     33 H033        1.3606    3.3215   -1.1773 H       1  UNL1        0.1048
     34 H034       -2.6845    1.3297   -0.6019 H       1  UNL1        0.0653
@<TRIPOS>BOND
     1     1     2    1
     2     2     3   ar
     3     3     4   ar
     4     4     5   ar
     5     5     6   ar
     6     6     7    1
     7     7     8    1
     8     8     9    1
     9     9    10   ar
    10    10    11   ar
    11    11    12   ar
    12    12    13   ar
    13    13    14   ar
    14    13    15    1
    15    15    16    1
    16    16    17    1
    17     6    18   ar
    18    18    19   ar
    19    19    20   ar
    20    20    21   ar
    21    21    22   ar
    22    22     2   ar
    23    21     5   ar
    24    14     9   ar
    25    17    12    1
    26     3    23    1
    27     4    24    1
    28     7    25    1
    29     8    26    1
    30     8    27    1
    31    10    28    1
    32    11    29    1
    33    14    30    1
    34    16    31    1
    35    16    32    1
    36    19    33    1
    37    22    34    1
