@<TRIPOS>MOLECULE
*****
 30 32 0 0 0
SMALL
GASTEIGER

@<TRIPOS>ATOM
      1 O001       -3.1816   -3.2182    0.8504 O.2     1  UNL1        0.0414
      2 N002       -1.9734   -2.9683    0.9579 N.pl3   1  UNL1        0.0796
      3 O003       -1.1291   -3.7474    1.4215 O.co2   1  UNL1       -0.5760
      4 C004       -1.5070   -1.6502    0.5114 C.ar    1  UNL1        0.2739
      5 C005       -2.4291   -0.6782    0.1278 C.ar    1  UNL1        0.0176
      6 C006       -1.9639    0.5711   -0.2956 C.ar    1  UNL1       -0.0292
      7 C007       -0.6082    0.8788   -0.3436 C.ar    1  UNL1        0.0764
      8 N008       -0.2507    2.0909   -0.7674 N.ar    1  UNL1       -0.2353
      9 C009        1.0602    2.3491   -0.8130 C.ar    1  UNL1        0.1187
     10 N010        2.0400    1.5119   -0.4642 N.ar    1  UNL1       -0.2200
     11 C011        1.6766    0.2948   -0.0230 C.ar    1  UNL1        0.1341
     12 N012        2.6773   -0.6248    0.3929 N.pl3   1  UNL1       -0.2989
     13 C013        4.0700   -0.5749    0.1575 C.ar    1  UNL1        0.0324
     14 C014        4.9305   -1.2756    1.0187 C.ar    1  UNL1       -0.0395
     15 C015        6.3103   -1.3122    0.7911 C.ar    1  UNL1       -0.0460
     16 C016        6.8423   -0.6664   -0.3204 C.ar    1  UNL1        0.0180
     17 BR017       8.7050   -0.7140   -0.6345 Br      1  UNL1       -0.0503
     18 C018        6.0063    0.0026   -1.2082 C.ar    1  UNL1       -0.0460
     19 C019        4.6272    0.0343   -0.9739 C.ar    1  UNL1       -0.0395
     20 C020        0.3233   -0.0948    0.0517 C.ar    1  UNL1        0.0468
     21 C021       -0.1367   -1.3704    0.4740 C.ar    1  UNL1        0.0280
     22 H022       -3.5006   -0.8676    0.1462 H       1  UNL1        0.0686
     23 H023       -2.6838    1.3295   -0.6012 H       1  UNL1        0.0641
     24 H024        1.3562    3.3317   -1.1643 H       1  UNL1        0.1048
     25 H025        2.4766   -0.9261    1.3412 H       1  UNL1        0.1536
     26 H026        4.5353   -1.8018    1.8841 H       1  UNL1        0.0636
     27 H027        6.9540   -1.8507    1.4812 H       1  UNL1        0.0629
     28 H028        6.4088    0.4961   -2.0885 H       1  UNL1        0.0629
     29 H029        3.9927    0.5401   -1.6968 H       1  UNL1        0.0636
     30 H030        0.5825   -2.1388    0.7523 H       1  UNL1        0.0693
@<TRIPOS>BOND
     1     1     2    2
     2     2     3    1
     3     2     4    1
     4     4     5   ar
     5     5     6   ar
     6     6     7   ar
     7     7     8   ar
     8     8     9   ar
     9     9    10   ar
    10    10    11   ar
    11    11    12    1
    12    12    13    1
    13    13    14   ar
    14    14    15   ar
    15    15    16   ar
    16    16    17    1
    17    16    18   ar
    18    18    19   ar
    19    11    20   ar
    20    20    21   ar
    21    21     4   ar
    22    20     7   ar
    23    19    13   ar
    24     5    22    1
    25     6    23    1
    26     9    24    1
    27    12    25    1
    28    14    26    1
    29    15    27    1
    30    18    28    1
    31    19    29    1
    32    21    30    1
