@<TRIPOS>MOLECULE
*****
 43 46 0 0 0
SMALL
GASTEIGER

@<TRIPOS>ATOM
      1 C001       -2.4191   -0.6864    0.1199 C.ar    1  UNL1       -0.0597
      2 C002       -1.5075   -1.6453    0.5386 C.ar    1  UNL1       -0.0610
      3 C003       -0.1458   -1.3530    0.5059 C.ar    1  UNL1       -0.0493
      4 C004        0.3193   -0.0931    0.0478 C.ar    1  UNL1        0.0401
      5 C005        1.6731    0.2910   -0.0297 C.ar    1  UNL1        0.1297
      6 N006        2.6749   -0.6351    0.3451 N.pl3   1  UNL1       -0.3285
      7 C007        4.0442   -0.1392    0.2396 C.3     1  UNL1        0.0119
      8 C008        5.0291   -1.2073    0.7132 C.3     1  UNL1       -0.0218
      9 C009        4.9034   -1.4867    2.2123 C.3     1  UNL1        0.0119
     10 N010        5.9265   -2.4631    2.5977 N.pl3   1  UNL1       -0.3285
     11 C011        5.8813   -2.8633    3.9556 C.ar    1  UNL1        0.1297
     12 N012        4.9302   -2.3489    4.7532 N.ar    1  UNL1       -0.2203
     13 C013        4.9341   -2.7481    6.0289 C.ar    1  UNL1        0.1187
     14 N014        5.7918   -3.6070    6.5898 N.ar    1  UNL1       -0.2353
     15 C015        6.7228   -4.1288    5.7864 C.ar    1  UNL1        0.0760
     16 C016        7.6284   -5.0382    6.3204 C.ar    1  UNL1       -0.0356
     17 C017        8.6237   -5.6362    5.5425 C.ar    1  UNL1       -0.0597
     18 C018        8.7213   -5.3271    4.1932 C.ar    1  UNL1       -0.0610
     19 C019        7.8268   -4.4165    3.6352 C.ar    1  UNL1       -0.0493
     20 C020        6.8232   -3.8001    4.4268 C.ar    1  UNL1        0.0401
     21 N021        2.0438    1.5190   -0.4314 N.ar    1  UNL1       -0.2203
     22 C022        1.0625    2.3555   -0.7852 C.ar    1  UNL1        0.1187
     23 N023       -0.2482    2.0910   -0.7803 N.ar    1  UNL1       -0.2353
     24 C024       -0.6092    0.8755   -0.3594 C.ar    1  UNL1        0.0760
     25 C025       -1.9622    0.5590   -0.3202 C.ar    1  UNL1       -0.0356
     26 H026       -3.4853   -0.8968    0.1408 H       1  UNL1        0.0618
     27 H027       -1.8517   -2.6127    0.8951 H       1  UNL1        0.0618
     28 H028        0.5595   -2.1036    0.8557 H       1  UNL1        0.0625
     29 H029        2.5357   -1.4843   -0.1982 H       1  UNL1        0.1475
     30 H030        4.1797    0.7673    0.8427 H       1  UNL1        0.0462
     31 H031        4.2743    0.1044   -0.8052 H       1  UNL1        0.0462
     32 H032        4.8798   -2.1370    0.1493 H       1  UNL1        0.0295
     33 H033        6.0485   -0.8665    0.4919 H       1  UNL1        0.0295
     34 H034        5.0402   -0.5537    2.7730 H       1  UNL1        0.0462
     35 H035        3.9032   -1.8829    2.4252 H       1  UNL1        0.0462
     36 H036        6.8637   -2.1155    2.4111 H       1  UNL1        0.1475
     37 H037        4.1674   -2.3316    6.6730 H       1  UNL1        0.1048
     38 H038        7.5544   -5.2929    7.3756 H       1  UNL1        0.0639
     39 H039        9.3120   -6.3458    5.9944 H       1  UNL1        0.0618
     40 H040        9.4838   -5.7950    3.5761 H       1  UNL1        0.0618
     41 H041        7.8984   -4.1953    2.5728 H       1  UNL1        0.0625
     42 H042        1.3593    3.3463   -1.1115 H       1  UNL1        0.1048
     43 H043       -2.6850    1.3075   -0.6380 H       1  UNL1        0.0639
@<TRIPOS>BOND
     1     1     2   ar
     2     2     3   ar
     3     3     4   ar
     4     4     5   ar
     5     5     6    1
     6     6     7    1
     7     7     8    1
     8     8     9    1
     9     9    10    1
    10    10    11    1
    11    11    12   ar
    12    12    13   ar
    13    13    14   ar
    14    14    15   ar
    15    15    16   ar
    16    16    17   ar
    17    17    18   ar
    18    18    19   ar
    19    19    20   ar
    20     5    21   ar
    21    21    22   ar
    22    22    23   ar
    23    23    24   ar
    24    24    25   ar
    25    25     1   ar
    26    24     4   ar
    27    20    11   ar
    28    20    15   ar
    29     1    26    1
    30     2    27    1
    31     3    28    1
    32     6    29    1
    33     7    30    1
    34     7    31    1
    35     8    32    1
    36     8    33    1
    37     9    34    1
    38     9    35    1
    39    10    36    1
    40    13    37    1
    41    16    38    1
    42    17    39    1
    43    18    40    1
    44    19    41    1
    45    22    42    1
    46    25    43    1
