@<TRIPOS>MOLECULE
*****
 42 44 0 0 0
SMALL
GASTEIGER

@<TRIPOS>ATOM
      1 C001       -5.3275    0.7651    0.4465 C.3     1  UNL1       -0.0307
      2 C002       -4.7234   -0.2505   -0.5071 C.3     1  UNL1        0.0870
      3 O003       -3.7488   -1.0470    0.1621 O.3     1  UNL1       -0.4885
      4 C004       -2.4272   -0.6862    0.1030 C.ar    1  UNL1        0.1639
      5 C005       -1.9608    0.5597   -0.3285 C.ar    1  UNL1        0.0098
      6 C006       -0.6076    0.8723   -0.3566 C.ar    1  UNL1        0.0797
      7 N007       -0.2475    2.0877   -0.7772 N.ar    1  UNL1       -0.2352
      8 C008        1.0613    2.3590   -0.7860 C.ar    1  UNL1        0.1187
      9 N009        2.0404    1.5246   -0.4305 N.ar    1  UNL1       -0.2200
     10 C010        1.6741    0.2975   -0.0206 C.ar    1  UNL1        0.1340
     11 N011        2.6790   -0.6481    0.3261 N.pl3   1  UNL1       -0.2988
     12 C012        4.0495   -0.4123    0.5813 C.ar    1  UNL1        0.0351
     13 C013        4.9647   -1.4668    0.4132 C.ar    1  UNL1       -0.0403
     14 C014        6.3216   -1.3062    0.7152 C.ar    1  UNL1       -0.0573
     15 C015        6.7789   -0.0917    1.2159 C.ar    1  UNL1       -0.0263
     16 C016        5.8744    0.9420    1.4197 C.ar    1  UNL1        0.1252
     17 F017        6.3099    2.1043    1.9247 F       1  UNL1       -0.2054
     18 C018        4.5231    0.7879    1.1212 C.ar    1  UNL1       -0.0052
     19 C019        0.3203   -0.0915    0.0543 C.ar    1  UNL1        0.0441
     20 C020       -0.1434   -1.3498    0.5175 C.ar    1  UNL1       -0.0038
     21 C021       -1.5069   -1.6471    0.5495 C.ar    1  UNL1        0.1627
     22 O022       -2.0318   -2.8401    0.9750 O.3     1  UNL1       -0.4886
     23 C023       -1.1661   -3.7461    1.6536 C.3     1  UNL1        0.0870
     24 C024       -2.0063   -4.9035    2.1627 C.3     1  UNL1       -0.0307
     25 H025       -4.5728    1.4647    0.8177 H       1  UNL1        0.0262
     26 H026       -5.7503    0.2625    1.3228 H       1  UNL1        0.0262
     27 H027       -6.1196    1.3355   -0.0469 H       1  UNL1        0.0262
     28 H028       -5.5158   -0.9359   -0.8290 H       1  UNL1        0.0694
     29 H029       -4.3382    0.2121   -1.4225 H       1  UNL1        0.0694
     30 H030       -2.6482    1.3375   -0.6450 H       1  UNL1        0.0677
     31 H031        1.3561    3.3489   -1.1170 H       1  UNL1        0.1048
     32 H032        2.5455   -1.4803   -0.2395 H       1  UNL1        0.1536
     33 H033        4.6291   -2.4305    0.0375 H       1  UNL1        0.0636
     34 H034        7.0149   -2.1295    0.5648 H       1  UNL1        0.0619
     35 H035        7.8262    0.0539    1.4592 H       1  UNL1        0.0646
     36 H036        3.8541    1.6176    1.3235 H       1  UNL1        0.0665
     37 H037        0.5841   -2.0778    0.8598 H       1  UNL1        0.0663
     38 H038       -0.4085   -4.1321    0.9623 H       1  UNL1        0.0694
     39 H039       -0.6833   -3.2526    2.5051 H       1  UNL1        0.0694
     40 H040       -1.3861   -5.6328    2.6912 H       1  UNL1        0.0262
     41 H041       -2.7862   -4.5439    2.8422 H       1  UNL1        0.0262
     42 H042       -2.5138   -5.4062    1.3327 H       1  UNL1        0.0262
@<TRIPOS>BOND
     1     1     2    1
     2     2     3    1
     3     3     4    1
     4     4     5   ar
     5     5     6   ar
     6     6     7   ar
     7     7     8   ar
     8     8     9   ar
     9     9    10   ar
    10    10    11    1
    11    11    12    1
    12    12    13   ar
    13    13    14   ar
    14    14    15   ar
    15    15    16   ar
    16    16    17    1
    17    16    18   ar
    18    10    19   ar
    19    19    20   ar
    20    20    21   ar
    21    21    22    1
    22    22    23    1
    23    23    24    1
    24    21     4   ar
    25    19     6   ar
    26    18    12   ar
    27     1    25    1
    28     1    26    1
    29     1    27    1
    30     2    28    1
    31     2    29    1
    32     5    30    1
    33     8    31    1
    34    11    32    1
    35    13    33    1
    36    14    34    1
    37    15    35    1
    38    18    36    1
    39    20    37    1
    40    23    38    1
    41    23    39    1
    42    24    40    1
    43    24    41    1
    44    24    42    1
