@<TRIPOS>MOLECULE
*****
 30 32 0 0 0
SMALL
GASTEIGER

@<TRIPOS>ATOM
      1 O001       -3.7385   -0.9925    0.1862 O.3     1  UNL1       -0.5032
      2 C002       -2.4111   -0.6713    0.1290 C.ar    1  UNL1        0.1603
      3 C003       -1.9707    0.5758   -0.2972 C.ar    1  UNL1        0.0096
      4 C004       -0.6134    0.8755   -0.3448 C.ar    1  UNL1        0.0797
      5 N005       -0.2554    2.0889   -0.7683 N.ar    1  UNL1       -0.2352
      6 C006        1.0563    2.3457   -0.8112 C.ar    1  UNL1        0.1187
      7 N007        2.0371    1.5100   -0.4615 N.ar    1  UNL1       -0.2200
      8 C008        1.6743    0.2917   -0.0210 C.ar    1  UNL1        0.1340
      9 N009        2.6754   -0.6281    0.3947 N.pl3   1  UNL1       -0.2988
     10 C010        4.0733   -0.5639    0.1967 C.ar    1  UNL1        0.0334
     11 C011        4.6546    0.0725   -0.9074 C.ar    1  UNL1       -0.0404
     12 C012        6.0392    0.0597   -1.1063 C.ar    1  UNL1       -0.0590
     13 C013        6.8662   -0.6149   -0.2127 C.ar    1  UNL1       -0.0476
     14 C014        6.2994   -1.2829    0.8681 C.ar    1  UNL1        0.0196
     15 BR015       7.4113   -2.2246    2.0741 Br      1  UNL1       -0.0502
     16 C016        4.9168   -1.2708    1.0678 C.ar    1  UNL1       -0.0265
     17 C017        0.3215   -0.0988    0.0497 C.ar    1  UNL1        0.0441
     18 C018       -0.1373   -1.3719    0.4718 C.ar    1  UNL1       -0.0041
     19 C019       -1.4951   -1.6393    0.5097 C.ar    1  UNL1        0.1590
     20 O020       -1.9226   -2.8657    0.9239 O.3     1  UNL1       -0.5033
     21 H021       -4.2550   -0.2249   -0.1173 H       1  UNL1        0.2923
     22 H022       -2.6791    1.3403   -0.6028 H       1  UNL1        0.0677
     23 H023        1.3528    3.3284   -1.1617 H       1  UNL1        0.1048
     24 H024        2.4441   -0.9678    1.3228 H       1  UNL1        0.1536
     25 H025        4.0330    0.5844   -1.6375 H       1  UNL1        0.0636
     26 H026        6.4653    0.5716   -1.9652 H       1  UNL1        0.0618
     27 H027        7.9406   -0.6229   -0.3732 H       1  UNL1        0.0629
     28 H028        4.4967   -1.8133    1.9103 H       1  UNL1        0.0647
     29 H029        0.5573   -2.1574    0.7555 H       1  UNL1        0.0663
     30 H030       -2.8983   -2.8271    0.8587 H       1  UNL1        0.2923
@<TRIPOS>BOND
     1     1     2    1
     2     2     3   ar
     3     3     4   ar
     4     4     5   ar
     5     5     6   ar
     6     6     7   ar
     7     7     8   ar
     8     8     9    1
     9     9    10    1
    10    10    11   ar
    11    11    12   ar
    12    12    13   ar
    13    13    14   ar
    14    14    15    1
    15    14    16   ar
    16     8    17   ar
    17    17    18   ar
    18    18    19   ar
    19    19    20    1
    20    19     2   ar
    21    17     4   ar
    22    16    10   ar
    23     1    21    1
    24     3    22    1
    25     6    23    1
    26     9    24    1
    27    11    25    1
    28    12    26    1
    29    13    27    1
    30    16    28    1
    31    18    29    1
    32    20    30    1
