@<TRIPOS>MOLECULE
*****
 28 30 0 0 0
SMALL
GASTEIGER

@<TRIPOS>ATOM
      1 I001        7.6240   -2.9128    0.4632 I       1  UNL1       -0.0438
      2 C002        6.3091   -1.3228    0.7277 C.ar    1  UNL1        0.0151
      3 C003        6.7856   -0.1056    1.2066 C.ar    1  UNL1       -0.0485
      4 C004        5.8952    0.9474    1.3992 C.ar    1  UNL1       -0.0590
      5 C005        4.5387    0.7829    1.1016 C.ar    1  UNL1       -0.0404
      6 C006        4.0507   -0.4230    0.5832 C.ar    1  UNL1        0.0334
      7 N007        2.6770   -0.6478    0.3363 N.pl3   1  UNL1       -0.2988
      8 C008        1.6747    0.2973   -0.0194 C.ar    1  UNL1        0.1339
      9 N009        2.0407    1.5249   -0.4307 N.ar    1  UNL1       -0.2200
     10 C010        1.0606    2.3574   -0.7907 C.ar    1  UNL1        0.1187
     11 N011       -0.2489    2.0896   -0.7812 N.ar    1  UNL1       -0.2353
     12 C012       -0.6081    0.8751   -0.3577 C.ar    1  UNL1        0.0760
     13 C013       -1.9609    0.5584   -0.3222 C.ar    1  UNL1       -0.0356
     14 C014       -2.4190   -0.6867    0.1166 C.ar    1  UNL1       -0.0597
     15 C015       -1.5086   -1.6453    0.5377 C.ar    1  UNL1       -0.0610
     16 C016       -0.1467   -1.3528    0.5095 C.ar    1  UNL1       -0.0493
     17 C017        0.3207   -0.0920    0.0529 C.ar    1  UNL1        0.0404
     18 C018        4.9532   -1.4876    0.4298 C.ar    1  UNL1       -0.0274
     19 H019        7.8369    0.0345    1.4428 H       1  UNL1        0.0628
     20 H020        6.2499    1.8982    1.7884 H       1  UNL1        0.0618
     21 H021        3.8638    1.6145    1.2878 H       1  UNL1        0.0636
     22 H022        2.5293   -1.4918   -0.2074 H       1  UNL1        0.1536
     23 H023        1.3564    3.3455   -1.1260 H       1  UNL1        0.1048
     24 H024       -2.6830    1.3065   -0.6432 H       1  UNL1        0.0639
     25 H025       -3.4854   -0.8970    0.1336 H       1  UNL1        0.0618
     26 H026       -1.8551   -2.6126    0.8926 H       1  UNL1        0.0618
     27 H027        0.5533   -2.1064    0.8631 H       1  UNL1        0.0625
     28 H028        4.5958   -2.4492    0.0717 H       1  UNL1        0.0646
@<TRIPOS>BOND
     1     1     2    1
     2     2     3   ar
     3     3     4   ar
     4     4     5   ar
     5     5     6   ar
     6     6     7    1
     7     7     8    1
     8     8     9   ar
     9     9    10   ar
    10    10    11   ar
    11    11    12   ar
    12    12    13   ar
    13    13    14   ar
    14    14    15   ar
    15    15    16   ar
    16    16    17   ar
    17     6    18   ar
    18    18     2   ar
    19    17     8   ar
    20    17    12   ar
    21     3    19    1
    22     4    20    1
    23     5    21    1
    24     7    22    1
    25    10    23    1
    26    13    24    1
    27    14    25    1
    28    15    26    1
    29    16    27    1
    30    18    28    1
