@<TRIPOS>MOLECULE
*****
 31 34 0 0 0
SMALL
GASTEIGER

@<TRIPOS>ATOM
      1 BR001       7.0234   -3.3628    1.5242 Br      1  UNL1       -0.0502
      2 C002        6.1475   -1.7819    0.9667 C.ar    1  UNL1        0.0196
      3 C003        6.8962   -0.6520    0.6577 C.ar    1  UNL1       -0.0476
      4 C004        6.2405    0.5076    0.2555 C.ar    1  UNL1       -0.0590
      5 C005        4.8436    0.5302    0.1602 C.ar    1  UNL1       -0.0404
      6 C006        4.0756   -0.6011    0.4540 C.ar    1  UNL1        0.0334
      7 N007        2.6728   -0.6378    0.4004 N.pl3   1  UNL1       -0.2988
      8 C008        1.6896    0.2854   -0.0271 C.ar    1  UNL1        0.1360
      9 N009        2.0434    1.5102   -0.4564 N.ar    1  UNL1       -0.2199
     10 C010        1.0574    2.3448   -0.8068 C.ar    1  UNL1        0.1187
     11 N011       -0.2574    2.0900   -0.7718 N.ar    1  UNL1       -0.2352
     12 C012       -0.6168    0.8771   -0.3470 C.ar    1  UNL1        0.0782
     13 C013       -1.9709    0.5589   -0.2911 C.ar    1  UNL1       -0.0335
     14 C014       -2.4515   -0.6882    0.1349 C.ar    1  UNL1       -0.0342
     15 C015       -1.4900   -1.6225    0.5047 C.ar    1  UNL1        0.0668
     16 N016       -1.5798   -2.9153    0.9548 N.ar    1  UNL1       -0.3444
     17 C017       -0.3113   -3.3798    1.1618 C.ar    1  UNL1        0.0945
     18 N018        0.5914   -2.4695    0.8763 N.ar    1  UNL1       -0.2352
     19 C019       -0.1262   -1.3583    0.4693 C.ar    1  UNL1        0.1012
     20 C020        0.3313   -0.0815    0.0419 C.ar    1  UNL1        0.0678
     21 C021        4.7543   -1.7590    0.8713 C.ar    1  UNL1       -0.0265
     22 H022        7.9798   -0.6619    0.7302 H       1  UNL1        0.0629
     23 H023        6.8099    1.4020    0.0165 H       1  UNL1        0.0618
     24 H024        4.3724    1.4577   -0.1484 H       1  UNL1        0.0636
     25 H025        2.2706   -1.5639    0.5591 H       1  UNL1        0.1536
     26 H026        1.3542    3.3291   -1.1529 H       1  UNL1        0.1048
     27 H027       -2.6906    1.3186   -0.5949 H       1  UNL1        0.0640
     28 H028       -3.5146   -0.9012    0.1650 H       1  UNL1        0.0639
     29 H029       -2.4327   -3.4357    1.1039 H       1  UNL1        0.1668
     30 H030       -0.1123   -4.3823    1.5180 H       1  UNL1        0.1027
     31 H031        4.1874   -2.6518    1.1241 H       1  UNL1        0.0647
@<TRIPOS>BOND
     1     1     2    1
     2     2     3   ar
     3     3     4   ar
     4     4     5   ar
     5     5     6   ar
     6     6     7    1
     7     7     8    1
     8     8     9   ar
     9     9    10   ar
    10    10    11   ar
    11    11    12   ar
    12    12    13   ar
    13    13    14   ar
    14    14    15   ar
    15    15    16   ar
    16    16    17   ar
    17    17    18   ar
    18    18    19   ar
    19    19    20   ar
    20     6    21   ar
    21    21     2   ar
    22    20     8   ar
    23    20    12   ar
    24    19    15   ar
    25     3    22    1
    26     4    23    1
    27     5    24    1
    28     7    25    1
    29    10    26    1
    30    13    27    1
    31    14    28    1
    32    16    29    1
    33    17    30    1
    34    21    31    1
