@<TRIPOS>MOLECULE
*****
 39 41 0 0 0
SMALL
GASTEIGER

@<TRIPOS>ATOM
      1 C001       -1.7326   -6.2190    2.3839 C.2     1  UNL1       -0.0938
      2 C002       -2.2255   -5.1097    1.8179 C.2     1  UNL1       -0.0066
      3 C003       -1.3329   -3.9560    1.5031 C.2     1  UNL1        0.2405
      4 O004       -0.1325   -4.0031    1.7375 O.2     1  UNL1       -0.2705
      5 N005       -2.0348   -2.8963    0.9633 N.am    1  UNL1       -0.2820
      6 C006       -1.5092   -1.6610    0.5305 C.ar    1  UNL1        0.0344
      7 C007       -2.4144   -0.6823    0.1261 C.ar    1  UNL1       -0.0384
      8 C008       -1.9572    0.5679   -0.3055 C.ar    1  UNL1       -0.0338
      9 C009       -0.6064    0.8812   -0.3494 C.ar    1  UNL1        0.0761
     10 N010       -0.2503    2.0961   -0.7713 N.ar    1  UNL1       -0.2353
     11 C011        1.0608    2.3537   -0.8066 C.ar    1  UNL1        0.1187
     12 N012        2.0400    1.5171   -0.4558 N.ar    1  UNL1       -0.2200
     13 C013        1.6755    0.2968   -0.0217 C.ar    1  UNL1        0.1339
     14 N014        2.6709   -0.6355    0.3801 N.pl3   1  UNL1       -0.2987
     15 C015        4.0758   -0.5979    0.2044 C.ar    1  UNL1        0.0353
     16 C016        4.6671    0.1095   -0.8539 C.ar    1  UNL1       -0.0403
     17 C017        6.0488    0.0983   -1.0613 C.ar    1  UNL1       -0.0600
     18 C018        6.8699   -0.6468   -0.2258 C.ar    1  UNL1       -0.0614
     19 C019        6.3065   -1.3933    0.8058 C.ar    1  UNL1       -0.0571
     20 C020        4.9157   -1.3930    1.0211 C.ar    1  UNL1       -0.0293
     21 C021        4.3665   -2.2446    2.1356 C.3     1  UNL1       -0.0380
     22 C022        0.3199   -0.0911    0.0481 C.ar    1  UNL1        0.0422
     23 C023       -0.1480   -1.3649    0.4765 C.ar    1  UNL1       -0.0280
     24 H024       -2.3749   -7.0627    2.6120 H       1  UNL1        0.0536
     25 H025       -0.6777   -6.3112    2.6305 H       1  UNL1        0.0536
     26 H026       -3.2785   -5.0420    1.5774 H       1  UNL1        0.0663
     27 H027       -3.0394   -2.9915    0.8973 H       1  UNL1        0.1551
     28 H028       -3.4858   -0.8641    0.1420 H       1  UNL1        0.0637
     29 H029       -2.6797    1.3204   -0.6154 H       1  UNL1        0.0639
     30 H030        1.3588    3.3375   -1.1524 H       1  UNL1        0.1048
     31 H031        2.4178   -1.0098    1.2873 H       1  UNL1        0.1536
     32 H032        4.0533    0.6798   -1.5452 H       1  UNL1        0.0636
     33 H033        6.4754    0.6679   -1.8822 H       1  UNL1        0.0618
     34 H034        7.9445   -0.6585   -0.3847 H       1  UNL1        0.0618
     35 H035        6.9605   -1.9873    1.4404 H       1  UNL1        0.0621
     36 H036        3.9148   -1.6127    2.9070 H       1  UNL1        0.0278
     37 H037        3.6187   -2.9445    1.7484 H       1  UNL1        0.0278
     38 H038        5.1515   -2.8405    2.6136 H       1  UNL1        0.0278
     39 H039        0.5839   -2.1205    0.7435 H       1  UNL1        0.0644
@<TRIPOS>BOND
     1     1     2    2
     2     2     3    1
     3     3     4    2
     4     3     5   am
     5     5     6    1
     6     6     7   ar
     7     7     8   ar
     8     8     9   ar
     9     9    10   ar
    10    10    11   ar
    11    11    12   ar
    12    12    13   ar
    13    13    14    1
    14    14    15    1
    15    15    16   ar
    16    16    17   ar
    17    17    18   ar
    18    18    19   ar
    19    19    20   ar
    20    20    21    1
    21    13    22   ar
    22    22    23   ar
    23    23     6   ar
    24    22     9   ar
    25    20    15   ar
    26     1    24    1
    27     1    25    1
    28     2    26    1
    29     5    27    1
    30     7    28    1
    31     8    29    1
    32    11    30    1
    33    14    31    1
    34    16    32    1
    35    17    33    1
    36    18    34    1
    37    19    35    1
    38    21    36    1
    39    21    37    1
    40    21    38    1
    41    23    39    1
