@<TRIPOS>MOLECULE
*****
 41 43 0 0 0
SMALL
GASTEIGER

@<TRIPOS>ATOM
      1 C001        4.2740   -1.3767   -2.0604 C.3     1  UNL1       -0.0633
      2 C002        4.5471   -0.1496   -1.1960 C.3     1  UNL1       -0.0332
      3 C003        4.0832   -0.3362    0.2651 C.3     1  UNL1        0.0471
      4 N004        2.6475   -0.6279    0.3883 N.pl3   1  UNL1       -0.3217
      5 C005        1.6687    0.2975   -0.0120 C.ar    1  UNL1        0.1302
      6 N006        2.0546    1.4968   -0.4620 N.ar    1  UNL1       -0.2203
      7 C007        1.0962    2.3483   -0.8191 C.ar    1  UNL1        0.1187
      8 N008       -0.2190    2.1157   -0.7786 N.ar    1  UNL1       -0.2345
      9 C009       -0.6331    0.9033   -0.3475 C.ar    1  UNL1        0.0881
     10 C010       -1.9995    0.5589   -0.2845 C.ar    1  UNL1        0.0625
     11 C011       -3.0978    1.5000   -0.6684 C.2     1  UNL1        0.2436
     12 N012       -2.7825    2.8057   -0.9017 N.am    1  UNL1       -0.3253
     13 O013       -4.2609    1.1240   -0.7721 O.2     1  UNL1       -0.2703
     14 C014       -2.4159   -0.7178    0.1378 C.ar    1  UNL1       -0.0475
     15 C015       -1.4862   -1.6738    0.5126 C.ar    1  UNL1       -0.0603
     16 C016       -0.1370   -1.3525    0.4675 C.ar    1  UNL1       -0.0492
     17 C017        0.3054   -0.0704    0.0485 C.ar    1  UNL1        0.0409
     18 C018        4.5319    0.7231    1.2628 C.ar    1  UNL1       -0.0219
     19 C019        4.6780    0.3811    2.6197 C.ar    1  UNL1       -0.0213
     20 C020        5.0788    1.3366    3.5519 C.ar    1  UNL1        0.1264
     21 F021        5.2150    0.9835    4.8370 F       1  UNL1       -0.2054
     22 C022        5.3384    2.6447    3.1748 C.ar    1  UNL1        0.0088
     23 C023        5.1929    2.9897    1.8409 C.ar    1  UNL1        0.1264
     24 F024        5.4318    4.2499    1.4577 F       1  UNL1       -0.2054
     25 C025        4.7977    2.0504    0.8901 C.ar    1  UNL1       -0.0213
     26 H026        4.7608   -2.2649   -1.6449 H       1  UNL1        0.0230
     27 H027        3.2016   -1.5767   -2.1456 H       1  UNL1        0.0230
     28 H028        4.6675   -1.2158   -3.0689 H       1  UNL1        0.0230
     29 H029        5.6289    0.0408   -1.2079 H       1  UNL1        0.0284
     30 H030        4.0815    0.7189   -1.6730 H       1  UNL1        0.0284
     31 H031        4.5895   -1.2560    0.5927 H       1  UNL1        0.0548
     32 H032        2.4231   -0.9444    1.3262 H       1  UNL1        0.1481
     33 H033        1.4144    3.3240   -1.1710 H       1  UNL1        0.1048
     34 H034       -3.5005    3.4050   -1.2822 H       1  UNL1        0.1453
     35 H035       -1.8087    3.0817   -0.9938 H       1  UNL1        0.1453
     36 H036       -3.4767   -0.9653    0.1714 H       1  UNL1        0.0626
     37 H037       -1.8102   -2.6616    0.8324 H       1  UNL1        0.0618
     38 H038        0.5823   -2.1212    0.7444 H       1  UNL1        0.0625
     39 H039        4.4876   -0.6301    2.9655 H       1  UNL1        0.0649
     40 H040        5.6461    3.3824    3.9080 H       1  UNL1        0.0675
     41 H041        4.6821    2.3815   -0.1383 H       1  UNL1        0.0649
@<TRIPOS>BOND
     1     1     2    1
     2     2     3    1
     3     3     4    1
     4     4     5    1
     5     5     6   ar
     6     6     7   ar
     7     7     8   ar
     8     8     9   ar
     9     9    10   ar
    10    10    11    1
    11    11    12   am
    12    11    13    2
    13    10    14   ar
    14    14    15   ar
    15    15    16   ar
    16    16    17   ar
    17     3    18    1
    18    18    19   ar
    19    19    20   ar
    20    20    21    1
    21    20    22   ar
    22    22    23   ar
    23    23    24    1
    24    23    25   ar
    25    17     5   ar
    26    25    18   ar
    27    17     9   ar
    28     1    26    1
    29     1    27    1
    30     1    28    1
    31     2    29    1
    32     2    30    1
    33     3    31    1
    34     4    32    1
    35     7    33    1
    36    12    34    1
    37    12    35    1
    38    14    36    1
    39    15    37    1
    40    16    38    1
    41    19    39    1
    42    22    40    1
    43    25    41    1
