@<TRIPOS>MOLECULE
*****
 49 52 0 0 0
SMALL
GASTEIGER

@<TRIPOS>ATOM
      1 C001        8.0489   -2.8356   -2.1585 C.3     1  UNL1       -0.0128
      2 N002        7.4453   -2.6957   -0.8328 N.3     1  UNL1       -0.3054
      3 C003        8.3347   -1.9437    0.0499 C.3     1  UNL1       -0.0128
      4 C004        6.0587   -2.1867   -0.8998 C.3     1  UNL1        0.0100
      5 C005        5.3055   -2.4060    0.4343 C.3     1  UNL1       -0.0357
      6 C006        4.9491   -1.0976    1.1354 C.3     1  UNL1       -0.0331
      7 C007        4.0661   -0.1874    0.2569 C.3     1  UNL1        0.0221
      8 N008        2.6661   -0.6218    0.3899 N.pl3   1  UNL1       -0.3256
      9 C009        1.6716    0.2994   -0.0172 C.ar    1  UNL1        0.1299
     10 N010        2.0457    1.5107   -0.4614 N.ar    1  UNL1       -0.2203
     11 C011        1.0673    2.3486   -0.8183 C.ar    1  UNL1        0.1187
     12 N012       -0.2453    2.1008   -0.7729 N.ar    1  UNL1       -0.2353
     13 C013       -0.6064    0.8873   -0.3462 C.ar    1  UNL1        0.0760
     14 C014       -1.9552    0.5733   -0.2922 C.ar    1  UNL1       -0.0353
     15 C015       -2.4083   -0.6826    0.1334 C.ar    1  UNL1       -0.0563
     16 C016       -1.5178   -1.6905    0.5212 C.ar    1  UNL1       -0.0435
     17 C017       -1.9490   -3.0717    0.9773 C.3     1  UNL1       -0.0158
     18 C018       -3.1670   -3.7472    0.3953 C.3     1  UNL1       -0.0457
     19 C019       -3.1888   -3.2630    1.8170 C.3     1  UNL1       -0.0457
     20 C020       -0.1529   -1.3615    0.4665 C.ar    1  UNL1       -0.0458
     21 C021        0.3169   -0.0855    0.0482 C.ar    1  UNL1        0.0404
     22 C022        4.4897   -0.2319   -1.2261 C.3     1  UNL1       -0.0331
     23 C023        5.9161   -0.7403   -1.4183 C.3     1  UNL1       -0.0357
     24 H024        8.2201   -1.8697   -2.6457 H       1  UNL1        0.0391
     25 H025        9.0121   -3.3536   -2.0861 H       1  UNL1        0.0391
     26 H026        7.4181   -3.4477   -2.8126 H       1  UNL1        0.0391
     27 H027        9.2923   -2.4676    0.1523 H       1  UNL1        0.0391
     28 H028        8.5477   -0.9358   -0.3209 H       1  UNL1        0.0391
     29 H029        7.9272   -1.8622    1.0619 H       1  UNL1        0.0391
     30 H030        5.5342   -2.8329   -1.6192 H       1  UNL1        0.0462
     31 H031        4.3808   -2.9623    0.2292 H       1  UNL1        0.0281
     32 H032        5.8768   -3.0469    1.1172 H       1  UNL1        0.0281
     33 H033        5.8742   -0.5635    1.3860 H       1  UNL1        0.0284
     34 H034        4.4565   -1.3148    2.0910 H       1  UNL1        0.0284
     35 H035        4.1833    0.8299    0.6534 H       1  UNL1        0.0498
     36 H036        2.4439   -0.8923    1.3452 H       1  UNL1        0.1478
     37 H037        1.3682    3.3269   -1.1767 H       1  UNL1        0.1048
     38 H038       -2.6824    1.3244   -0.5933 H       1  UNL1        0.0639
     39 H039       -3.4806   -0.8634    0.1504 H       1  UNL1        0.0621
     40 H040       -1.1291   -3.7502    1.2165 H       1  UNL1        0.0349
     41 H041       -3.7699   -3.2227   -0.3360 H       1  UNL1        0.0271
     42 H042       -3.1148   -4.8170    0.2237 H       1  UNL1        0.0271
     43 H043       -3.8064   -2.4059    2.0574 H       1  UNL1        0.0271
     44 H044       -3.1523   -4.0055    2.6069 H       1  UNL1        0.0271
     45 H045        0.5739   -2.1246    0.7416 H       1  UNL1        0.0628
     46 H046        3.8100   -0.8688   -1.8080 H       1  UNL1        0.0284
     47 H047        4.4070    0.7729   -1.6578 H       1  UNL1        0.0284
     48 H048        6.1704   -0.6976   -2.4839 H       1  UNL1        0.0281
     49 H049        6.6004   -0.0561   -0.9045 H       1  UNL1        0.0281
@<TRIPOS>BOND
     1     1     2    1
     2     2     3    1
     3     2     4    1
     4     4     5    1
     5     5     6    1
     6     6     7    1
     7     7     8    1
     8     8     9    1
     9     9    10   ar
    10    10    11   ar
    11    11    12   ar
    12    12    13   ar
    13    13    14   ar
    14    14    15   ar
    15    15    16   ar
    16    16    17    1
    17    17    18    1
    18    18    19    1
    19    16    20   ar
    20    20    21   ar
    21     7    22    1
    22    22    23    1
    23    23     4    1
    24    21     9   ar
    25    21    13   ar
    26    19    17    1
    27     1    24    1
    28     1    25    1
    29     1    26    1
    30     3    27    1
    31     3    28    1
    32     3    29    1
    33     4    30    1
    34     5    31    1
    35     5    32    1
    36     6    33    1
    37     6    34    1
    38     7    35    1
    39     8    36    1
    40    11    37    1
    41    14    38    1
    42    15    39    1
    43    17    40    1
    44    18    41    1
    45    18    42    1
    46    19    43    1
    47    19    44    1
    48    20    45    1
    49    22    46    1
    50    22    47    1
    51    23    48    1
    52    23    49    1
