@<TRIPOS>MOLECULE
*****
 33 35 0 0 0
SMALL
GASTEIGER

@<TRIPOS>ATOM
      1 N001       -1.9474   -2.9274    0.9100 N.pl3   1  UNL1       -0.3579
      2 C002       -1.5133   -1.6422    0.5774 C.ar    1  UNL1        0.0253
      3 C003       -2.4100   -0.6966    0.0942 C.ar    1  UNL1       -0.0390
      4 C004       -1.9560    0.5534   -0.3404 C.ar    1  UNL1       -0.0338
      5 C005       -0.6073    0.8786   -0.3558 C.ar    1  UNL1        0.0761
      6 N006       -0.2479    2.0951   -0.7733 N.ar    1  UNL1       -0.2353
      7 C007        1.0616    2.3625   -0.7814 C.ar    1  UNL1        0.1187
      8 N008        2.0403    1.5252   -0.4288 N.ar    1  UNL1       -0.2200
      9 C009        1.6722    0.2959   -0.0243 C.ar    1  UNL1        0.1339
     10 N010        2.6748   -0.6530    0.3214 N.pl3   1  UNL1       -0.2989
     11 C011        4.0505   -0.4296    0.5518 C.ar    1  UNL1        0.0329
     12 C012        4.9519   -1.4901    0.3775 C.ar    1  UNL1       -0.0405
     13 C013        6.3119   -1.3364    0.6565 C.ar    1  UNL1       -0.0595
     14 C014        6.7910   -0.1209    1.1386 C.ar    1  UNL1       -0.0500
     15 C015        5.9115    0.9484    1.3517 C.ar    1  UNL1        0.0566
     16 C016        6.4048    2.2566    1.9145 C.3     1  UNL1        0.4175
     17 F017        7.7350    2.4658    1.6982 F       1  UNL1       -0.1659
     18 F018        5.7720    3.3427    1.3896 F       1  UNL1       -0.1659
     19 F019        6.2326    2.3385    3.2632 F       1  UNL1       -0.1659
     20 C020        4.5440    0.7721    1.0742 C.ar    1  UNL1       -0.0289
     21 C021        0.3181   -0.0893    0.0537 C.ar    1  UNL1        0.0422
     22 C022       -0.1511   -1.3516    0.5083 C.ar    1  UNL1       -0.0286
     23 H023       -1.3270   -3.4283    1.5390 H       1  UNL1        0.1423
     24 H024       -2.9148   -2.9709    1.2176 H       1  UNL1        0.1423
     25 H025       -3.4745   -0.9126    0.0572 H       1  UNL1        0.0637
     26 H026       -2.6787    1.2895   -0.6860 H       1  UNL1        0.0639
     27 H027        1.3585    3.3528   -1.1094 H       1  UNL1        0.1048
     28 H028        2.5220   -1.4931   -0.2278 H       1  UNL1        0.1536
     29 H029        4.6029   -2.4542    0.0159 H       1  UNL1        0.0636
     30 H030        6.9949   -2.1683    0.5031 H       1  UNL1        0.0618
     31 H031        7.8522   -0.0121    1.3569 H       1  UNL1        0.0623
     32 H032        3.8598    1.5943    1.2777 H       1  UNL1        0.0642
     33 H033        0.5612   -2.1076    0.8289 H       1  UNL1        0.0644
@<TRIPOS>BOND
     1     1     2    1
     2     2     3   ar
     3     3     4   ar
     4     4     5   ar
     5     5     6   ar
     6     6     7   ar
     7     7     8   ar
     8     8     9   ar
     9     9    10    1
    10    10    11    1
    11    11    12   ar
    12    12    13   ar
    13    13    14   ar
    14    14    15   ar
    15    15    16    1
    16    16    17    1
    17    16    18    1
    18    16    19    1
    19    15    20   ar
    20     9    21   ar
    21    21    22   ar
    22    22     2   ar
    23    21     5   ar
    24    20    11   ar
    25     1    23    1
    26     1    24    1
    27     3    25    1
    28     4    26    1
    29     7    27    1
    30    10    28    1
    31    12    29    1
    32    13    30    1
    33    14    31    1
    34    20    32    1
    35    22    33    1
