@<TRIPOS>MOLECULE
*****
 36 38 0 0 0
SMALL
GASTEIGER

@<TRIPOS>ATOM
      1 C001       -3.3528   -5.5009    1.1424 C.2     1  UNL1       -0.0938
      2 C002       -2.1946   -5.1709    1.7295 C.2     1  UNL1       -0.0066
      3 C003       -1.3369   -4.0131    1.3511 C.2     1  UNL1        0.2405
      4 O004       -0.1230   -4.1268    1.4675 O.2     1  UNL1       -0.2705
      5 N005       -2.0386   -2.9008    0.9436 N.am    1  UNL1       -0.2820
      6 C006       -1.5112   -1.6611    0.5291 C.ar    1  UNL1        0.0344
      7 C007       -2.4153   -0.6822    0.1227 C.ar    1  UNL1       -0.0384
      8 C008       -1.9570    0.5668   -0.3104 C.ar    1  UNL1       -0.0338
      9 C009       -0.6059    0.8783   -0.3544 C.ar    1  UNL1        0.0761
     10 N010       -0.2492    2.0919   -0.7797 N.ar    1  UNL1       -0.2353
     11 C011        1.0606    2.3560   -0.7987 C.ar    1  UNL1        0.1187
     12 N012        2.0394    1.5219   -0.4405 N.ar    1  UNL1       -0.2200
     13 C013        1.6749    0.2950   -0.0241 C.ar    1  UNL1        0.1339
     14 N014        2.6762   -0.6381    0.3582 N.pl3   1  UNL1       -0.2988
     15 C015        4.0540   -0.4279    0.5874 C.ar    1  UNL1        0.0338
     16 C016        4.5769    0.7995    1.0145 C.ar    1  UNL1       -0.0404
     17 C017        5.9399    0.9520    1.2905 C.ar    1  UNL1       -0.0586
     18 C018        6.8015   -0.1339    1.1660 C.ar    1  UNL1       -0.0433
     19 C019        6.2909   -1.3685    0.7783 C.ar    1  UNL1        0.0427
     20 CL020       7.3457   -2.7228    0.6439 Cl      1  UNL1       -0.0835
     21 C021        4.9302   -1.5212    0.5029 C.ar    1  UNL1       -0.0222
     22 C022        0.3196   -0.0921    0.0499 C.ar    1  UNL1        0.0422
     23 C023       -0.1505   -1.3582    0.4989 C.ar    1  UNL1       -0.0280
     24 H024       -3.7802   -4.9412    0.3179 H       1  UNL1        0.0536
     25 H025       -3.8875   -6.3911    1.4619 H       1  UNL1        0.0536
     26 H026       -1.7650   -5.8060    2.4989 H       1  UNL1        0.0663
     27 H027       -3.0472   -2.9677    0.9629 H       1  UNL1        0.1551
     28 H028       -3.4864   -0.8665    0.1310 H       1  UNL1        0.0637
     29 H029       -2.6788    1.3186   -0.6234 H       1  UNL1        0.0639
     30 H030        1.3578    3.3421   -1.1385 H       1  UNL1        0.1048
     31 H031        2.5012   -1.5271   -0.0998 H       1  UNL1        0.1536
     32 H032        3.9248    1.6587    1.1484 H       1  UNL1        0.0636
     33 H033        6.3209    1.9186    1.6097 H       1  UNL1        0.0619
     34 H034        7.8593   -0.0147    1.3822 H       1  UNL1        0.0632
     35 H035        4.5552   -2.5007    0.2189 H       1  UNL1        0.0651
     36 H036        0.5766   -2.0883    0.8388 H       1  UNL1        0.0644
@<TRIPOS>BOND
     1     1     2    2
     2     2     3    1
     3     3     4    2
     4     3     5   am
     5     5     6    1
     6     6     7   ar
     7     7     8   ar
     8     8     9   ar
     9     9    10   ar
    10    10    11   ar
    11    11    12   ar
    12    12    13   ar
    13    13    14    1
    14    14    15    1
    15    15    16   ar
    16    16    17   ar
    17    17    18   ar
    18    18    19   ar
    19    19    20    1
    20    19    21   ar
    21    13    22   ar
    22    22    23   ar
    23    23     6   ar
    24    22     9   ar
    25    21    15   ar
    26     1    24    1
    27     1    25    1
    28     2    26    1
    29     5    27    1
    30     7    28    1
    31     8    29    1
    32    11    30    1
    33    14    31    1
    34    16    32    1
    35    17    33    1
    36    18    34    1
    37    21    35    1
    38    23    36    1
