@<TRIPOS>MOLECULE
*****
 33 35 0 0 0
SMALL
GASTEIGER

@<TRIPOS>ATOM
      1 C001        4.6140   -2.8150   -0.0186 C.3     1  UNL1       -0.0380
      2 C002        4.9967   -1.4517    0.4952 C.ar    1  UNL1       -0.0292
      3 C003        6.3429   -1.2228    0.8355 C.ar    1  UNL1       -0.0557
      4 C004        6.7519    0.0112    1.3359 C.ar    1  UNL1       -0.0430
      5 C005        5.8152    1.0212    1.5110 C.ar    1  UNL1        0.0427
      6 CL006       6.3092    2.5375    2.1600 Cl      1  UNL1       -0.0835
      7 C007        4.4780    0.8123    1.1753 C.ar    1  UNL1       -0.0219
      8 C008        4.0489   -0.4081    0.6281 C.ar    1  UNL1        0.0367
      9 N009        2.6790   -0.6442    0.3439 N.pl3   1  UNL1       -0.2986
     10 C010        1.6756    0.2969   -0.0185 C.ar    1  UNL1        0.1341
     11 N011        2.0385    1.5226   -0.4344 N.ar    1  UNL1       -0.2200
     12 C012        1.0595    2.3567   -0.7930 C.ar    1  UNL1        0.1187
     13 N013       -0.2499    2.0868   -0.7798 N.ar    1  UNL1       -0.2353
     14 C014       -0.6078    0.8744   -0.3568 C.ar    1  UNL1        0.0764
     15 C015       -1.9629    0.5626   -0.3185 C.ar    1  UNL1       -0.0292
     16 C016       -2.4282   -0.6823    0.1181 C.ar    1  UNL1        0.0176
     17 C017       -1.5073   -1.6427    0.5326 C.ar    1  UNL1        0.2739
     18 N018       -1.9735   -2.9554    0.9944 N.pl3   1  UNL1        0.0796
     19 O019       -1.1165   -3.8236    1.2108 O.2     1  UNL1        0.0414
     20 O020       -3.1936   -3.1173    1.1320 O.co2   1  UNL1       -0.5760
     21 C021       -0.1377   -1.3584    0.5060 C.ar    1  UNL1        0.0280
     22 C022        0.3229   -0.0944    0.0514 C.ar    1  UNL1        0.0468
     23 H023        3.8198   -3.2463    0.5993 H       1  UNL1        0.0278
     24 H024        4.2758   -2.7458   -1.0574 H       1  UNL1        0.0278
     25 H025        5.4602   -3.5099    0.0089 H       1  UNL1        0.0278
     26 H026        7.0830   -2.0122    0.7189 H       1  UNL1        0.0621
     27 H027        7.7940    0.1719    1.5975 H       1  UNL1        0.0632
     28 H028        3.7662    1.6138    1.3507 H       1  UNL1        0.0651
     29 H029        2.5547   -1.4749   -0.2235 H       1  UNL1        0.1536
     30 H030        1.3552    3.3450   -1.1287 H       1  UNL1        0.1048
     31 H031       -2.6824    1.3159   -0.6373 H       1  UNL1        0.0641
     32 H032       -3.4992   -0.8751    0.1286 H       1  UNL1        0.0686
     33 H033        0.5787   -2.1016    0.8520 H       1  UNL1        0.0693
@<TRIPOS>BOND
     1     1     2    1
     2     2     3   ar
     3     3     4   ar
     4     4     5   ar
     5     5     6    1
     6     5     7   ar
     7     7     8   ar
     8     8     9    1
     9     9    10    1
    10    10    11   ar
    11    11    12   ar
    12    12    13   ar
    13    13    14   ar
    14    14    15   ar
    15    15    16   ar
    16    16    17   ar
    17    17    18    1
    18    18    19    2
    19    18    20    1
    20    17    21   ar
    21    21    22   ar
    22     8     2   ar
    23    22    10   ar
    24    22    14   ar
    25     1    23    1
    26     1    24    1
    27     1    25    1
    28     3    26    1
    29     4    27    1
    30     7    28    1
    31     9    29    1
    32    12    30    1
    33    15    31    1
    34    16    32    1
    35    21    33    1
