@<TRIPOS>MOLECULE
*****
 48 50 0 0 0
SMALL
GASTEIGER

@<TRIPOS>ATOM
      1 C001        2.1019   -2.5787    6.7181 C.3     1  UNL1       -0.0560
      2 C002        3.4334   -1.7998    6.7850 C.3     1  UNL1       -0.0127
      3 C003        4.5272   -2.8019    7.2186 C.3     1  UNL1       -0.0560
      4 C004        3.3375   -0.7236    7.8879 C.3     1  UNL1       -0.0560
      5 C005        3.7080   -1.1278    5.4284 C.ar    1  UNL1       -0.0420
      6 C006        2.7953   -0.1914    4.9066 C.ar    1  UNL1       -0.0578
      7 C007        3.0133    0.4373    3.6771 C.ar    1  UNL1       -0.0582
      8 C008        4.1544    0.1482    2.9251 C.ar    1  UNL1       -0.0459
      9 C009        4.3711    0.8015    1.5794 C.3     1  UNL1       -0.0121
     10 C010        4.0538   -0.1244    0.3934 C.3     1  UNL1        0.0144
     11 N011        2.6709   -0.6141    0.3893 N.pl3   1  UNL1       -0.3282
     12 C012        1.6716    0.2997   -0.0024 C.ar    1  UNL1        0.1297
     13 N013        2.0437    1.5073   -0.4611 N.ar    1  UNL1       -0.2203
     14 C014        1.0649    2.3410   -0.8263 C.ar    1  UNL1        0.1187
     15 N015       -0.2474    2.0929   -0.7793 N.ar    1  UNL1       -0.2353
     16 C016       -0.6077    0.8816   -0.3473 C.ar    1  UNL1        0.0761
     17 C017       -1.9596    0.5763   -0.2793 C.ar    1  UNL1       -0.0338
     18 C018       -2.4140   -0.6751    0.1506 C.ar    1  UNL1       -0.0390
     19 C019       -1.5090   -1.6775    0.4796 C.ar    1  UNL1        0.0253
     20 N020       -1.9551   -2.8887    1.0144 N.pl3   1  UNL1       -0.3579
     21 C021       -0.1503   -1.3633    0.4753 C.ar    1  UNL1       -0.0286
     22 C022        0.3184   -0.0905    0.0518 C.ar    1  UNL1        0.0418
     23 C023        5.0715   -0.7775    3.4285 C.ar    1  UNL1       -0.0582
     24 C024        4.8510   -1.4042    4.6611 C.ar    1  UNL1       -0.0578
     25 H025        2.1255   -3.3325    5.9221 H       1  UNL1        0.0238
     26 H026        1.2467   -1.9222    6.5237 H       1  UNL1        0.0238
     27 H027        1.8993   -3.0971    7.6626 H       1  UNL1        0.0238
     28 H028        4.2868   -3.2538    8.1885 H       1  UNL1        0.0238
     29 H029        4.6315   -3.6219    6.4986 H       1  UNL1        0.0238
     30 H030        5.5029   -2.3135    7.3243 H       1  UNL1        0.0238
     31 H031        4.2582   -0.1305    7.9414 H       1  UNL1        0.0238
     32 H032        2.5081   -0.0284    7.7179 H       1  UNL1        0.0238
     33 H033        3.1766   -1.1793    8.8720 H       1  UNL1        0.0238
     34 H034        1.8915    0.0651    5.4556 H       1  UNL1        0.0621
     35 H035        2.2790    1.1522    3.3102 H       1  UNL1        0.0620
     36 H036        5.4194    1.1197    1.5126 H       1  UNL1        0.0328
     37 H037        3.7811    1.7236    1.5221 H       1  UNL1        0.0328
     38 H038        4.2998    0.3706   -0.5542 H       1  UNL1        0.0465
     39 H039        4.7054   -1.0054    0.4444 H       1  UNL1        0.0465
     40 H040        2.4273   -1.0090    1.2959 H       1  UNL1        0.1475
     41 H041        1.3653    3.3163   -1.1932 H       1  UNL1        0.1048
     42 H042       -2.6854    1.3364   -0.5599 H       1  UNL1        0.0639
     43 H043       -3.4838   -0.8540    0.2158 H       1  UNL1        0.0637
     44 H044       -1.2867   -3.6491    0.9310 H       1  UNL1        0.1423
     45 H045       -2.8833   -3.1608    0.7051 H       1  UNL1        0.1423
     46 H046        0.5647   -2.1194    0.7898 H       1  UNL1        0.0644
     47 H047        5.9699   -1.0229    2.8661 H       1  UNL1        0.0620
     48 H048        5.6014   -2.1135    4.9989 H       1  UNL1        0.0621
@<TRIPOS>BOND
     1     1     2    1
     2     2     3    1
     3     2     4    1
     4     2     5    1
     5     5     6   ar
     6     6     7   ar
     7     7     8   ar
     8     8     9    1
     9     9    10    1
    10    10    11    1
    11    11    12    1
    12    12    13   ar
    13    13    14   ar
    14    14    15   ar
    15    15    16   ar
    16    16    17   ar
    17    17    18   ar
    18    18    19   ar
    19    19    20    1
    20    19    21   ar
    21    21    22   ar
    22     8    23   ar
    23    23    24   ar
    24    24     5   ar
    25    22    12   ar
    26    22    16   ar
    27     1    25    1
    28     1    26    1
    29     1    27    1
    30     3    28    1
    31     3    29    1
    32     3    30    1
    33     4    31    1
    34     4    32    1
    35     4    33    1
    36     6    34    1
    37     7    35    1
    38     9    36    1
    39     9    37    1
    40    10    38    1
    41    10    39    1
    42    11    40    1
    43    14    41    1
    44    17    42    1
    45    18    43    1
    46    20    44    1
    47    20    45    1
    48    21    46    1
    49    23    47    1
    50    24    48    1
