@<TRIPOS>MOLECULE
*****
 30 32 0 0 0
SMALL
GASTEIGER

@<TRIPOS>ATOM
      1 O001       -1.1289   -3.7476    1.4207 O.2     1  UNL1        0.0414
      2 N002       -1.9735   -2.9683    0.9579 N.pl3   1  UNL1        0.0796
      3 O003       -3.1818   -3.2179    0.8512 O.co2   1  UNL1       -0.5760
      4 C004       -1.5071   -1.6502    0.5114 C.ar    1  UNL1        0.2739
      5 C005       -2.4292   -0.6782    0.1278 C.ar    1  UNL1        0.0176
      6 C006       -1.9640    0.5711   -0.2956 C.ar    1  UNL1       -0.0292
      7 C007       -0.6082    0.8787   -0.3436 C.ar    1  UNL1        0.0764
      8 N008       -0.2506    2.0908   -0.7674 N.ar    1  UNL1       -0.2353
      9 C009        1.0602    2.3491   -0.8130 C.ar    1  UNL1        0.1187
     10 N010        2.0401    1.5118   -0.4642 N.ar    1  UNL1       -0.2200
     11 C011        1.6765    0.2949   -0.0230 C.ar    1  UNL1        0.1341
     12 N012        2.6776   -0.6247    0.3929 N.pl3   1  UNL1       -0.2989
     13 C013        4.0701   -0.5736    0.1573 C.ar    1  UNL1        0.0325
     14 C014        4.9315   -1.2719    1.0194 C.ar    1  UNL1       -0.0391
     15 C015        6.3113   -1.3064    0.7909 C.ar    1  UNL1       -0.0416
     16 C016        6.8430   -0.6618   -0.3214 C.ar    1  UNL1        0.0411
     17 CL017       8.5383   -0.7037   -0.6074 Cl      1  UNL1       -0.0835
     18 C018        6.0054    0.0045   -1.2095 C.ar    1  UNL1       -0.0416
     19 C019        4.6261    0.0349   -0.9754 C.ar    1  UNL1       -0.0391
     20 C020        0.3232   -0.0949    0.0517 C.ar    1  UNL1        0.0468
     21 C021       -0.1368   -1.3705    0.4740 C.ar    1  UNL1        0.0280
     22 H022       -3.5007   -0.8676    0.1462 H       1  UNL1        0.0686
     23 H023       -2.6839    1.3295   -0.6012 H       1  UNL1        0.0641
     24 H024        1.3562    3.3318   -1.1643 H       1  UNL1        0.1048
     25 H025        2.4762   -0.9263    1.3410 H       1  UNL1        0.1536
     26 H026        4.5375   -1.7974    1.8859 H       1  UNL1        0.0636
     27 H027        6.9593   -1.8420    1.4792 H       1  UNL1        0.0633
     28 H028        6.4108    0.4960   -2.0895 H       1  UNL1        0.0633
     29 H029        3.9909    0.5389   -1.6990 H       1  UNL1        0.0636
     30 H030        0.5823   -2.1389    0.7523 H       1  UNL1        0.0693
@<TRIPOS>BOND
     1     1     2    2
     2     2     3    1
     3     2     4    1
     4     4     5   ar
     5     5     6   ar
     6     6     7   ar
     7     7     8   ar
     8     8     9   ar
     9     9    10   ar
    10    10    11   ar
    11    11    12    1
    12    12    13    1
    13    13    14   ar
    14    14    15   ar
    15    15    16   ar
    16    16    17    1
    17    16    18   ar
    18    18    19   ar
    19    11    20   ar
    20    20    21   ar
    21    21     4   ar
    22    20     7   ar
    23    19    13   ar
    24     5    22    1
    25     6    23    1
    26     9    24    1
    27    12    25    1
    28    14    26    1
    29    15    27    1
    30    18    28    1
    31    19    29    1
    32    21    30    1
