@<TRIPOS>MOLECULE
*****
 30 32 0 0 0
SMALL
GASTEIGER

@<TRIPOS>ATOM
      1 O001       -3.2351    1.5022   -1.9444 O.2     1  UNL1        0.0415
      2 N002       -2.9458    1.4914   -0.7402 N.pl3   1  UNL1        0.0818
      3 O003       -3.4808    2.1748    0.1434 O.co2   1  UNL1       -0.5760
      4 C004       -1.9621    0.5287   -0.3138 C.ar    1  UNL1        0.2989
      5 C005       -2.4319   -0.7161    0.1278 C.ar    1  UNL1        0.0178
      6 C006       -1.5090   -1.6597    0.5455 C.ar    1  UNL1       -0.0545
      7 C007       -0.1511   -1.3438    0.5059 C.ar    1  UNL1       -0.0488
      8 C008        0.3096   -0.0770    0.0447 C.ar    1  UNL1        0.0471
      9 C009        1.6677    0.3006   -0.0212 C.ar    1  UNL1        0.1341
     10 N010        2.6618   -0.6513    0.3367 N.pl3   1  UNL1       -0.2988
     11 C011        4.0311   -0.4248    0.6101 C.ar    1  UNL1        0.0334
     12 C012        4.9411   -1.4826    0.4466 C.ar    1  UNL1       -0.0404
     13 C013        6.2941   -1.3293    0.7641 C.ar    1  UNL1       -0.0590
     14 C014        6.7552   -0.1197    1.2759 C.ar    1  UNL1       -0.0476
     15 C015        5.8562    0.9237    1.4781 C.ar    1  UNL1        0.0196
     16 BR016       6.4714    2.5593    2.2025 Br      1  UNL1       -0.0502
     17 C017        4.5044    0.7718    1.1620 C.ar    1  UNL1       -0.0265
     18 N018        2.0494    1.5228   -0.4294 N.ar    1  UNL1       -0.2200
     19 C019        1.0869    2.3696   -0.7916 C.ar    1  UNL1        0.1190
     20 N020       -0.2235    2.1104   -0.7862 N.ar    1  UNL1       -0.2285
     21 C021       -0.6162    0.8940   -0.3674 C.ar    1  UNL1        0.1527
     22 H022       -3.4964   -0.9377    0.1501 H       1  UNL1        0.0686
     23 H023       -1.8371   -2.6321    0.9063 H       1  UNL1        0.0620
     24 H024        0.5592   -2.0903    0.8594 H       1  UNL1        0.0625
     25 H025        2.5326   -1.4846   -0.2283 H       1  UNL1        0.1536
     26 H026        4.6058   -2.4428    0.0624 H       1  UNL1        0.0636
     27 H027        6.9847   -2.1557    0.6165 H       1  UNL1        0.0618
     28 H028        7.8069   -0.0035    1.5228 H       1  UNL1        0.0629
     29 H029        3.8192    1.5922    1.3545 H       1  UNL1        0.0647
     30 H030        1.3947    3.3556   -1.1228 H       1  UNL1        0.1048
@<TRIPOS>BOND
     1     1     2    2
     2     2     3    1
     3     2     4    1
     4     4     5   ar
     5     5     6   ar
     6     6     7   ar
     7     7     8   ar
     8     8     9   ar
     9     9    10    1
    10    10    11    1
    11    11    12   ar
    12    12    13   ar
    13    13    14   ar
    14    14    15   ar
    15    15    16    1
    16    15    17   ar
    17     9    18   ar
    18    18    19   ar
    19    19    20   ar
    20    20    21   ar
    21    21     4   ar
    22    21     8   ar
    23    17    11   ar
    24     5    22    1
    25     6    23    1
    26     7    24    1
    27    10    25    1
    28    12    26    1
    29    13    27    1
    30    14    28    1
    31    17    29    1
    32    19    30    1
