@<TRIPOS>MOLECULE
*****
 51 53 0 0 0
SMALL
GASTEIGER

@<TRIPOS>ATOM
      1 C001       -2.8359   -2.9715    2.2214 C.3     1  UNL1       -0.0586
      2 C002       -1.9711   -3.0480    0.9607 C.3     1  UNL1       -0.0215
      3 C003       -2.7057   -3.7874   -0.1603 C.3     1  UNL1       -0.0586
      4 C004       -1.5139   -1.6719    0.5135 C.ar    1  UNL1       -0.0440
      5 C005       -2.4179   -0.6800    0.1303 C.ar    1  UNL1       -0.0563
      6 C006       -1.9588    0.5721   -0.2920 C.ar    1  UNL1       -0.0353
      7 C007       -0.6070    0.8833   -0.3431 C.ar    1  UNL1        0.0760
      8 N008       -0.2481    2.0967   -0.7708 N.ar    1  UNL1       -0.2353
      9 C009        1.0646    2.3439   -0.8200 C.ar    1  UNL1        0.1187
     10 N010        2.0431    1.5079   -0.4624 N.ar    1  UNL1       -0.2203
     11 C011        1.6746    0.2987   -0.0096 C.ar    1  UNL1        0.1299
     12 N012        2.6718   -0.6174    0.3848 N.pl3   1  UNL1       -0.3256
     13 C013        4.0737   -0.1771    0.2959 C.3     1  UNL1        0.0221
     14 C014        4.4323    0.7523    1.4717 C.3     1  UNL1       -0.0331
     15 C015        5.9136    0.7160    1.8658 C.3     1  UNL1       -0.0357
     16 C016        6.8369    0.2962    0.7031 C.3     1  UNL1        0.0100
     17 N017        6.7396    1.2110   -0.4614 N.3     1  UNL1       -0.3054
     18 C018        7.5875    0.7892   -1.5824 C.3     1  UNL1       -0.0128
     19 C019        7.0889    2.5934   -0.1088 C.3     1  UNL1       -0.0128
     20 C020        6.4595   -1.1691    0.3830 C.3     1  UNL1       -0.0357
     21 C021        4.9517   -1.4382    0.2917 C.3     1  UNL1       -0.0331
     22 C022        0.3202   -0.0895    0.0522 C.ar    1  UNL1        0.0404
     23 C023       -0.1469   -1.3658    0.4682 C.ar    1  UNL1       -0.0458
     24 H024       -3.0868   -3.9767    2.5774 H       1  UNL1        0.0235
     25 H025       -3.7760   -2.4385    2.0421 H       1  UNL1        0.0235
     26 H026       -2.3065   -2.4526    3.0283 H       1  UNL1        0.0235
     27 H027       -1.0853   -3.6454    1.2144 H       1  UNL1        0.0343
     28 H028       -2.9560   -4.8074    0.1509 H       1  UNL1        0.0235
     29 H029       -3.6393   -3.2863   -0.4386 H       1  UNL1        0.0235
     30 H030       -2.0823   -3.8546   -1.0590 H       1  UNL1        0.0235
     31 H031       -3.4893   -0.8667    0.1452 H       1  UNL1        0.0621
     32 H032       -2.6816    1.3266   -0.5955 H       1  UNL1        0.0639
     33 H033        1.3660    3.3202   -1.1830 H       1  UNL1        0.1048
     34 H034        2.4455   -0.9750    1.3078 H       1  UNL1        0.1478
     35 H035        4.2415    0.3360   -0.6593 H       1  UNL1        0.0498
     36 H036        4.1603    1.7810    1.2048 H       1  UNL1        0.0284
     37 H037        3.8344    0.5132    2.3607 H       1  UNL1        0.0284
     38 H038        6.2098    1.6781    2.2984 H       1  UNL1        0.0281
     39 H039        6.0355   -0.0074    2.6844 H       1  UNL1        0.0281
     40 H040        7.8736    0.3008    1.0671 H       1  UNL1        0.0462
     41 H041        8.6319    0.6536   -1.2801 H       1  UNL1        0.0391
     42 H042        7.5609    1.5290   -2.3916 H       1  UNL1        0.0391
     43 H043        7.2231   -0.1376   -2.0342 H       1  UNL1        0.0391
     44 H044        8.0935    2.6652    0.3231 H       1  UNL1        0.0391
     45 H045        7.0499    3.2413   -0.9925 H       1  UNL1        0.0391
     46 H046        6.3703    3.0240    0.5946 H       1  UNL1        0.0391
     47 H047        6.8605   -1.8047    1.1857 H       1  UNL1        0.0281
     48 H048        6.9597   -1.5399   -0.5166 H       1  UNL1        0.0281
     49 H049        4.6658   -2.0830    1.1347 H       1  UNL1        0.0284
     50 H050        4.7432   -2.0305   -0.6087 H       1  UNL1        0.0284
     51 H051        0.5767   -2.1313    0.7417 H       1  UNL1        0.0628
@<TRIPOS>BOND
     1     1     2    1
     2     2     3    1
     3     2     4    1
     4     4     5   ar
     5     5     6   ar
     6     6     7   ar
     7     7     8   ar
     8     8     9   ar
     9     9    10   ar
    10    10    11   ar
    11    11    12    1
    12    12    13    1
    13    13    14    1
    14    14    15    1
    15    15    16    1
    16    16    17    1
    17    17    18    1
    18    17    19    1
    19    16    20    1
    20    20    21    1
    21    11    22   ar
    22    22    23   ar
    23    23     4   ar
    24    22     7   ar
    25    21    13    1
    26     1    24    1
    27     1    25    1
    28     1    26    1
    29     2    27    1
    30     3    28    1
    31     3    29    1
    32     3    30    1
    33     5    31    1
    34     6    32    1
    35     9    33    1
    36    12    34    1
    37    13    35    1
    38    14    36    1
    39    14    37    1
    40    15    38    1
    41    15    39    1
    42    16    40    1
    43    18    41    1
    44    18    42    1
    45    18    43    1
    46    19    44    1
    47    19    45    1
    48    19    46    1
    49    20    47    1
    50    20    48    1
    51    21    49    1
    52    21    50    1
    53    23    51    1
