@<TRIPOS>MOLECULE
*****
 35 37 0 0 0
SMALL
GASTEIGER

@<TRIPOS>ATOM
      1 C001       -4.6224   -0.6297   -0.9841 C.3     1  UNL1       -0.0024
      2 N002       -3.8053   -1.0041    0.1550 N.pl3   1  UNL1       -0.3454
      3 C003       -2.4314   -0.6926    0.0890 C.ar    1  UNL1        0.0499
      4 C004       -1.9620    0.5569   -0.3321 C.ar    1  UNL1       -0.0129
      5 C005       -0.6088    0.8740   -0.3549 C.ar    1  UNL1        0.0779
      6 N006       -0.2469    2.0901   -0.7741 N.ar    1  UNL1       -0.2352
      7 C007        1.0618    2.3603   -0.7818 C.ar    1  UNL1        0.1187
      8 N008        2.0413    1.5241   -0.4310 N.ar    1  UNL1       -0.2200
      9 C009        1.6745    0.2965   -0.0223 C.ar    1  UNL1        0.1339
     10 N010        2.6795   -0.6497    0.3231 N.pl3   1  UNL1       -0.2988
     11 C011        4.0513   -0.4156    0.5741 C.ar    1  UNL1        0.0334
     12 C012        4.9647   -1.4680    0.3955 C.ar    1  UNL1       -0.0404
     13 C013        6.3218   -1.3068    0.6904 C.ar    1  UNL1       -0.0590
     14 C014        6.7842   -0.0944    1.1945 C.ar    1  UNL1       -0.0476
     15 C015        5.8825    0.9438    1.4117 C.ar    1  UNL1        0.0196
     16 BR016       6.5003    2.5831    2.1256 Br      1  UNL1       -0.0502
     17 C017        4.5266    0.7837    1.1182 C.ar    1  UNL1       -0.0265
     18 C018        0.3207   -0.0915    0.0537 C.ar    1  UNL1        0.0423
     19 C019       -0.1416   -1.3519    0.5107 C.ar    1  UNL1       -0.0268
     20 C020       -1.5056   -1.6380    0.5708 C.ar    1  UNL1        0.0465
     21 N021       -1.9474   -2.9472    0.8817 N.pl3   1  UNL1       -0.3565
     22 H022       -4.2059   -1.0189   -1.9194 H       1  UNL1        0.0425
     23 H023       -4.7382    0.4558   -1.0594 H       1  UNL1        0.0425
     24 H024       -5.6238   -1.0545   -0.8611 H       1  UNL1        0.0425
     25 H025       -3.8917   -1.9892    0.4163 H       1  UNL1        0.1458
     26 H026       -2.6675    1.3252   -0.6360 H       1  UNL1        0.0658
     27 H027        1.3566    3.3514   -1.1089 H       1  UNL1        0.1048
     28 H028        2.5423   -1.4834   -0.2383 H       1  UNL1        0.1536
     29 H029        4.6280   -2.4298    0.0169 H       1  UNL1        0.0636
     30 H030        7.0146   -2.1292    0.5317 H       1  UNL1        0.0618
     31 H031        7.8390    0.0281    1.4242 H       1  UNL1        0.0629
     32 H032        3.8388    1.5994    1.3223 H       1  UNL1        0.0647
     33 H033        0.5710   -2.1020    0.8418 H       1  UNL1        0.0644
     34 H034       -2.0991   -3.4761    0.0249 H       1  UNL1        0.1424
     35 H035       -1.2892   -3.4414    1.4786 H       1  UNL1        0.1424
@<TRIPOS>BOND
     1     1     2    1
     2     2     3    1
     3     3     4   ar
     4     4     5   ar
     5     5     6   ar
     6     6     7   ar
     7     7     8   ar
     8     8     9   ar
     9     9    10    1
    10    10    11    1
    11    11    12   ar
    12    12    13   ar
    13    13    14   ar
    14    14    15   ar
    15    15    16    1
    16    15    17   ar
    17     9    18   ar
    18    18    19   ar
    19    19    20   ar
    20    20    21    1
    21    20     3   ar
    22    18     5   ar
    23    17    11   ar
    24     1    22    1
    25     1    23    1
    26     1    24    1
    27     2    25    1
    28     4    26    1
    29     7    27    1
    30    10    28    1
    31    12    29    1
    32    13    30    1
    33    14    31    1
    34    17    32    1
    35    19    33    1
    36    21    34    1
    37    21    35    1
