@<TRIPOS>MOLECULE
*****
 36 38 0 0 0
SMALL
GASTEIGER

@<TRIPOS>ATOM
      1 C001       -4.7842   -0.0131   -0.3955 C.3     1  UNL1        0.0004
      2 N002       -3.8394   -0.9654    0.1879 N.pl3   1  UNL1       -0.3360
      3 C003       -4.2811   -2.3601    0.2017 C.3     1  UNL1        0.0004
      4 C004       -2.4673   -0.6932    0.1262 C.ar    1  UNL1        0.0313
      5 C005       -1.5075   -1.6389    0.5075 C.ar    1  UNL1       -0.0399
      6 C006       -0.1382   -1.3560    0.4661 C.ar    1  UNL1       -0.0475
      7 C007        0.3281   -0.0915    0.0471 C.ar    1  UNL1        0.0405
      8 C008        1.6824    0.2978   -0.0260 C.ar    1  UNL1        0.1339
      9 N009        2.6824   -0.6207    0.3992 N.pl3   1  UNL1       -0.2988
     10 C010        4.0792   -0.5543    0.1915 C.ar    1  UNL1        0.0334
     11 C011        4.9313   -1.2320    1.0793 C.ar    1  UNL1       -0.0404
     12 C012        6.3155   -1.2504    0.8831 C.ar    1  UNL1       -0.0590
     13 C013        6.8691   -0.6105   -0.2223 C.ar    1  UNL1       -0.0476
     14 C014        6.0318    0.0325   -1.1299 C.ar    1  UNL1        0.0196
     15 BR015       6.7760    0.8770   -2.6503 Br      1  UNL1       -0.0502
     16 C016        4.6490    0.0509   -0.9350 C.ar    1  UNL1       -0.0265
     17 N017        2.0486    1.5139   -0.4677 N.ar    1  UNL1       -0.2200
     18 C018        1.0656    2.3477   -0.8149 C.ar    1  UNL1        0.1187
     19 N019       -0.2450    2.0889   -0.7651 N.ar    1  UNL1       -0.2352
     20 C020       -0.6046    0.8728   -0.3398 C.ar    1  UNL1        0.0778
     21 C021       -1.9628    0.5573   -0.2817 C.ar    1  UNL1       -0.0145
     22 H022       -4.7009    0.9704    0.0796 H       1  UNL1        0.0428
     23 H023       -5.8195   -0.3351   -0.2360 H       1  UNL1        0.0428
     24 H024       -4.6291    0.0835   -1.4757 H       1  UNL1        0.0428
     25 H025       -3.9117   -2.8989   -0.6780 H       1  UNL1        0.0428
     26 H026       -3.9508   -2.8711    1.1122 H       1  UNL1        0.0428
     27 H027       -5.3746   -2.4323    0.1967 H       1  UNL1        0.0428
     28 H028       -1.7978   -2.6263    0.8535 H       1  UNL1        0.0636
     29 H029        0.5599   -2.1386    0.7528 H       1  UNL1        0.0626
     30 H030        2.4601   -0.9222    1.3423 H       1  UNL1        0.1536
     31 H031        4.5237   -1.7520    1.9428 H       1  UNL1        0.0636
     32 H032        6.9582   -1.7686    1.5900 H       1  UNL1        0.0618
     33 H033        7.9448   -0.6272   -0.3733 H       1  UNL1        0.0629
     34 H034        4.0150    0.5357   -1.6718 H       1  UNL1        0.0647
     35 H035        1.3586    3.3302   -1.1685 H       1  UNL1        0.1048
     36 H036       -2.6421    1.3497   -0.5838 H       1  UNL1        0.0657
@<TRIPOS>BOND
     1     1     2    1
     2     2     3    1
     3     2     4    1
     4     4     5   ar
     5     5     6   ar
     6     6     7   ar
     7     7     8   ar
     8     8     9    1
     9     9    10    1
    10    10    11   ar
    11    11    12   ar
    12    12    13   ar
    13    13    14   ar
    14    14    15    1
    15    14    16   ar
    16     8    17   ar
    17    17    18   ar
    18    18    19   ar
    19    19    20   ar
    20    20    21   ar
    21    21     4   ar
    22    20     7   ar
    23    16    10   ar
    24     1    22    1
    25     1    23    1
    26     1    24    1
    27     3    25    1
    28     3    26    1
    29     3    27    1
    30     5    28    1
    31     6    29    1
    32     9    30    1
    33    11    31    1
    34    12    32    1
    35    13    33    1
    36    16    34    1
    37    18    35    1
    38    21    36    1
