@<TRIPOS>MOLECULE
*****
 31 34 0 0 0
SMALL
GASTEIGER

@<TRIPOS>ATOM
      1 BR001       6.4898    2.6357    2.0644 Br      1  UNL1       -0.0502
      2 C002        5.8758    0.9788    1.3888 C.ar    1  UNL1        0.0196
      3 C003        6.7803   -0.0613    1.1939 C.ar    1  UNL1       -0.0476
      4 C004        6.3206   -1.2861    0.7183 C.ar    1  UNL1       -0.0590
      5 C005        4.9635   -1.4576    0.4292 C.ar    1  UNL1       -0.0404
      6 C006        4.0470   -0.4044    0.5854 C.ar    1  UNL1        0.0334
      7 N007        2.6764   -0.6492    0.3398 N.pl3   1  UNL1       -0.2988
      8 C008        1.6598    0.2807   -0.0149 C.ar    1  UNL1        0.1339
      9 N009        2.0191    1.5093   -0.4290 N.ar    1  UNL1       -0.2200
     10 C010        1.0415    2.3435   -0.7871 C.ar    1  UNL1        0.1187
     11 N011       -0.2684    2.0799   -0.7779 N.ar    1  UNL1       -0.2353
     12 C012       -0.6405    0.8743   -0.3583 C.ar    1  UNL1        0.0767
     13 C013       -2.0191    0.6431   -0.3550 C.ar    1  UNL1       -0.0249
     14 C014       -2.3601   -0.6236    0.0975 C.ar    1  UNL1        0.0215
     15 C015       -3.6262   -1.1231    0.2113 C.ar    1  UNL1        0.0301
     16 N016       -3.4515   -2.3867    0.6999 N.ar    1  UNL1       -0.2836
     17 N017       -2.1630   -2.7292    0.9014 N.ar    1  UNL1       -0.1739
     18 C018       -1.4605   -1.6454    0.5372 C.ar    1  UNL1        0.0933
     19 C019       -0.0795   -1.4153    0.5357 C.ar    1  UNL1       -0.0215
     20 C020        0.3130   -0.1192    0.0630 C.ar    1  UNL1        0.0425
     21 C021        4.5199    0.8082    1.1012 C.ar    1  UNL1       -0.0265
     22 H022        7.8351    0.0690    1.4192 H       1  UNL1        0.0629
     23 H023        7.0149   -2.1105    0.5776 H       1  UNL1        0.0618
     24 H024        4.6286   -2.4292    0.0738 H       1  UNL1        0.0636
     25 H025        2.5416   -1.5005   -0.1962 H       1  UNL1        0.1536
     26 H026        1.3401    3.3314   -1.1211 H       1  UNL1        0.1048
     27 H027       -2.7301    1.3934   -0.6744 H       1  UNL1        0.0646
     28 H028       -4.6075   -0.7215    0.0039 H       1  UNL1        0.0830
     29 H029       -4.1660   -3.0729    0.9201 H       1  UNL1        0.1882
     30 H030        0.6125   -2.1686    0.8852 H       1  UNL1        0.0647
     31 H031        3.8305    1.6263    1.2886 H       1  UNL1        0.0647
@<TRIPOS>BOND
     1     1     2    1
     2     2     3   ar
     3     3     4   ar
     4     4     5   ar
     5     5     6   ar
     6     6     7    1
     7     7     8    1
     8     8     9   ar
     9     9    10   ar
    10    10    11   ar
    11    11    12   ar
    12    12    13   ar
    13    13    14   ar
    14    14    15   ar
    15    15    16   ar
    16    16    17   ar
    17    17    18   ar
    18    18    19   ar
    19    19    20   ar
    20     6    21   ar
    21    21     2   ar
    22    20     8   ar
    23    20    12   ar
    24    18    14   ar
    25     3    22    1
    26     4    23    1
    27     5    24    1
    28     7    25    1
    29    10    26    1
    30    13    27    1
    31    15    28    1
    32    16    29    1
    33    19    30    1
    34    21    31    1
