@<TRIPOS>MOLECULE
*****
 31 34 0 0 0
SMALL
GASTEIGER

@<TRIPOS>ATOM
      1 BR001       7.4403   -2.1688    2.0467 Br      1  UNL1       -0.0502
      2 C002        6.3071   -1.2640    0.8322 C.ar    1  UNL1        0.0196
      3 C003        6.8543   -0.6313   -0.2795 C.ar    1  UNL1       -0.0476
      4 C004        6.0113    0.0152   -1.1790 C.ar    1  UNL1       -0.0590
      5 C005        4.6306    0.0353   -0.9555 C.ar    1  UNL1       -0.0404
      6 C006        4.0698   -0.5643    0.1795 C.ar    1  UNL1        0.0334
      7 N007        2.6747   -0.6243    0.4008 N.pl3   1  UNL1       -0.2988
      8 C008        1.6726    0.2926   -0.0245 C.ar    1  UNL1        0.1339
      9 N009        2.0379    1.5125   -0.4671 N.ar    1  UNL1       -0.2200
     10 C010        1.0609    2.3583   -0.8182 C.ar    1  UNL1        0.1188
     11 N011       -0.2478    2.1117   -0.7744 N.ar    1  UNL1       -0.2331
     12 C012       -0.5944    0.8805   -0.3431 C.ar    1  UNL1        0.1033
     13 C013        0.3221   -0.1034    0.0521 C.ar    1  UNL1        0.0426
     14 C014       -0.1517   -1.3750    0.4708 C.ar    1  UNL1       -0.0472
     15 C015       -1.5157   -1.6838    0.5201 C.ar    1  UNL1       -0.0355
     16 C016       -2.3956   -0.6759    0.1310 C.ar    1  UNL1        0.0681
     17 N017       -3.7662   -0.6361    0.0552 N.ar    1  UNL1       -0.3443
     18 C018       -4.1309    0.5988   -0.3953 C.ar    1  UNL1        0.0945
     19 N019       -3.0854    1.3585   -0.6165 N.ar    1  UNL1       -0.2338
     20 C020       -1.9813    0.5850   -0.2965 C.ar    1  UNL1        0.1147
     21 C021        4.9284   -1.2444    1.0570 C.ar    1  UNL1       -0.0265
     22 H022        7.9256   -0.6446   -0.4592 H       1  UNL1        0.0629
     23 H023        6.4216    0.5002   -2.0610 H       1  UNL1        0.0618
     24 H024        3.9953    0.5255   -1.6891 H       1  UNL1        0.0636
     25 H025        2.4609   -0.9149    1.3493 H       1  UNL1        0.1536
     26 H026        1.3639    3.3386   -1.1692 H       1  UNL1        0.1048
     27 H027        0.5575   -2.1534    0.7489 H       1  UNL1        0.0626
     28 H028       -1.8614   -2.6619    0.8381 H       1  UNL1        0.0639
     29 H029       -4.3970   -1.3889    0.2894 H       1  UNL1        0.1668
     30 H030       -5.1639    0.8852   -0.5424 H       1  UNL1        0.1027
     31 H031        4.5238   -1.7587    1.9241 H       1  UNL1        0.0647
@<TRIPOS>BOND
     1     1     2    1
     2     2     3   ar
     3     3     4   ar
     4     4     5   ar
     5     5     6   ar
     6     6     7    1
     7     7     8    1
     8     8     9   ar
     9     9    10   ar
    10    10    11   ar
    11    11    12   ar
    12    12    13   ar
    13    13    14   ar
    14    14    15   ar
    15    15    16   ar
    16    16    17   ar
    17    17    18   ar
    18    18    19   ar
    19    19    20   ar
    20     6    21   ar
    21    21     2   ar
    22    13     8   ar
    23    20    16   ar
    24    20    12   ar
    25     3    22    1
    26     4    23    1
    27     5    24    1
    28     7    25    1
    29    10    26    1
    30    14    27    1
    31    15    28    1
    32    17    29    1
    33    18    30    1
    34    21    31    1
