@<TRIPOS>MOLECULE
*****
 30 32 0 0 0
SMALL
GASTEIGER

@<TRIPOS>ATOM
      1 O001       -4.2074   -2.0770    0.5670 O.2     1  UNL1        0.0414
      2 N002       -3.8535   -0.9594    0.1659 N.pl3   1  UNL1        0.0797
      3 O003       -4.6279   -0.0663   -0.2032 O.co2   1  UNL1       -0.5760
      4 C004       -2.4143   -0.6754    0.1289 C.ar    1  UNL1        0.2752
      5 C005       -1.5038   -1.6604    0.5128 C.ar    1  UNL1        0.0164
      6 C006       -0.1412   -1.3700    0.4710 C.ar    1  UNL1       -0.0429
      7 C007        0.3206   -0.0950    0.0505 C.ar    1  UNL1        0.0409
      8 C008        1.6746    0.2941   -0.0241 C.ar    1  UNL1        0.1339
      9 N009        2.6748   -0.6243    0.3979 N.pl3   1  UNL1       -0.2988
     10 C010        4.0690   -0.5697    0.1677 C.ar    1  UNL1        0.0338
     11 C011        4.6251    0.0267   -0.9718 C.ar    1  UNL1       -0.0404
     12 C012        6.0044    0.0022   -1.2037 C.ar    1  UNL1       -0.0586
     13 C013        6.8500   -0.6454   -0.3075 C.ar    1  UNL1       -0.0433
     14 C014        6.3080   -1.2744    0.8087 C.ar    1  UNL1        0.0427
     15 CL015       7.3430   -2.0990    1.9100 Cl      1  UNL1       -0.0835
     16 C016        4.9309   -1.2503    1.0411 C.ar    1  UNL1       -0.0222
     17 N017        2.0394    1.5105   -0.4658 N.ar    1  UNL1       -0.2200
     18 C018        1.0599    2.3480   -0.8141 C.ar    1  UNL1        0.1187
     19 N019       -0.2514    2.0906   -0.7670 N.ar    1  UNL1       -0.2351
     20 C020       -0.6112    0.8791   -0.3432 C.ar    1  UNL1        0.0824
     21 C021       -1.9657    0.5811   -0.2961 C.ar    1  UNL1        0.0417
     22 H022       -1.8319   -2.6467    0.8358 H       1  UNL1        0.0685
     23 H023        0.5656   -2.1494    0.7507 H       1  UNL1        0.0627
     24 H024        2.4677   -0.9169    1.3476 H       1  UNL1        0.1536
     25 H025        3.9875    0.5173   -1.7031 H       1  UNL1        0.0636
     26 H026        6.4119    0.4837   -2.0890 H       1  UNL1        0.0619
     27 H027        7.9208   -0.6649   -0.4897 H       1  UNL1        0.0632
     28 H028        4.5345   -1.7634    1.9127 H       1  UNL1        0.0651
     29 H029        1.3558    3.3306   -1.1659 H       1  UNL1        0.1048
     30 H030       -2.6727    1.3508   -0.6025 H       1  UNL1        0.0707
@<TRIPOS>BOND
     1     1     2    2
     2     2     3    1
     3     2     4    1
     4     4     5   ar
     5     5     6   ar
     6     6     7   ar
     7     7     8   ar
     8     8     9    1
     9     9    10    1
    10    10    11   ar
    11    11    12   ar
    12    12    13   ar
    13    13    14   ar
    14    14    15    1
    15    14    16   ar
    16     8    17   ar
    17    17    18   ar
    18    18    19   ar
    19    19    20   ar
    20    20    21   ar
    21    21     4   ar
    22    20     7   ar
    23    16    10   ar
    24     5    22    1
    25     6    23    1
    26     9    24    1
    27    11    25    1
    28    12    26    1
    29    13    27    1
    30    16    28    1
    31    18    29    1
    32    21    30    1
