@<TRIPOS>MOLECULE
*****
 45 48 0 0 0
SMALL
GASTEIGER

@<TRIPOS>ATOM
      1 C001       -4.7247   -0.0718   -0.1089 C.3     1  UNL1        0.0790
      2 O002       -3.7469   -1.0735    0.1447 O.3     1  UNL1       -0.4914
      3 C003       -2.4357   -0.6826    0.1106 C.ar    1  UNL1        0.1643
      4 C004       -1.9683    0.5587   -0.3251 C.ar    1  UNL1        0.0098
      5 C005       -0.6102    0.8689   -0.3542 C.ar    1  UNL1        0.0797
      6 N006       -0.2543    2.0833   -0.7766 N.ar    1  UNL1       -0.2352
      7 C007        1.0542    2.3558   -0.7839 C.ar    1  UNL1        0.1187
      8 N008        2.0372    1.5228   -0.4339 N.ar    1  UNL1       -0.2203
      9 C009        1.6823    0.2935   -0.0283 C.ar    1  UNL1        0.1300
     10 N010        2.6815   -0.6511    0.3459 N.pl3   1  UNL1       -0.3251
     11 C011        4.1154   -0.3557    0.5043 C.3     1  UNL1        0.0294
     12 C012        4.9227    0.4386   -0.4715 C.3     1  UNL1       -0.0255
     13 C013        4.7013    0.9705    0.9319 C.3     1  UNL1        0.0042
     14 C014        5.8435    1.0003    1.9217 C.ar    1  UNL1       -0.0425
     15 C015        5.7008    0.4577    3.2098 C.ar    1  UNL1       -0.0582
     16 C016        6.7452    0.4955    4.1374 C.ar    1  UNL1       -0.0615
     17 C017        7.9579    1.0865    3.7949 C.ar    1  UNL1       -0.0617
     18 C018        8.1229    1.6408    2.5288 C.ar    1  UNL1       -0.0615
     19 C019        7.0737    1.6003    1.6065 C.ar    1  UNL1       -0.0582
     20 C020        0.3271   -0.0952    0.0509 C.ar    1  UNL1        0.0438
     21 C021       -0.1334   -1.3532    0.5056 C.ar    1  UNL1       -0.0031
     22 C022       -1.4987   -1.6227    0.5399 C.ar    1  UNL1        0.1738
     23 O023       -1.9100   -2.8899    0.9600 O.3     1  UNL1       -0.4223
     24 C024       -2.3475   -2.8935    2.2788 C.2     1  UNL1        0.3093
     25 C025       -2.8914   -4.2539    2.6004 C.3     1  UNL1        0.0336
     26 O026       -2.2870   -1.9701    3.0801 O.2     1  UNL1       -0.2507
     27 H027       -4.6714    0.2734   -1.1464 H       1  UNL1        0.0660
     28 H028       -5.7105   -0.5221    0.0414 H       1  UNL1        0.0660
     29 H029       -4.6296    0.7636    0.5927 H       1  UNL1        0.0660
     30 H030       -2.6550    1.3291   -0.6632 H       1  UNL1        0.0677
     31 H031        1.3469    3.3483   -1.1092 H       1  UNL1        0.1048
     32 H032        2.5052   -1.5048   -0.1793 H       1  UNL1        0.1478
     33 H033        4.6146   -1.2387    0.9035 H       1  UNL1        0.0504
     34 H034        5.9001    0.0548   -0.7391 H       1  UNL1        0.0290
     35 H035        4.4186    0.9456   -1.2844 H       1  UNL1        0.0290
     36 H036        4.0167    1.8085    1.0226 H       1  UNL1        0.0367
     37 H037        4.7546    0.0014    3.4949 H       1  UNL1        0.0620
     38 H038        6.6069    0.0680    5.1272 H       1  UNL1        0.0618
     39 H039        8.7708    1.1198    4.5151 H       1  UNL1        0.0618
     40 H040        9.0651    2.1095    2.2575 H       1  UNL1        0.0618
     41 H041        7.2150    2.0471    0.6247 H       1  UNL1        0.0620
     42 H042        0.5625   -2.1112    0.8528 H       1  UNL1        0.0663
     43 H043       -2.0956   -4.9989    2.5215 H       1  UNL1        0.0342
     44 H044       -3.2759   -4.2575    3.6246 H       1  UNL1        0.0342
     45 H045       -3.7139   -4.4943    1.9220 H       1  UNL1        0.0342
@<TRIPOS>BOND
     1     1     2    1
     2     2     3    1
     3     3     4   ar
     4     4     5   ar
     5     5     6   ar
     6     6     7   ar
     7     7     8   ar
     8     8     9   ar
     9     9    10    1
    10    10    11    1
    11    11    12    1
    12    12    13    1
    13    13    14    1
    14    14    15   ar
    15    15    16   ar
    16    16    17   ar
    17    17    18   ar
    18    18    19   ar
    19     9    20   ar
    20    20    21   ar
    21    21    22   ar
    22    22    23    1
    23    23    24    1
    24    24    25    1
    25    24    26    2
    26    22     3   ar
    27    20     5   ar
    28    13    11    1
    29    19    14   ar
    30     1    27    1
    31     1    28    1
    32     1    29    1
    33     4    30    1
    34     7    31    1
    35    10    32    1
    36    11    33    1
    37    12    34    1
    38    12    35    1
    39    13    36    1
    40    15    37    1
    41    16    38    1
    42    17    39    1
    43    18    40    1
    44    19    41    1
    45    21    42    1
    46    25    43    1
    47    25    44    1
    48    25    45    1
