@<TRIPOS>MOLECULE
*****
 30 32 0 0 0
SMALL
GASTEIGER

@<TRIPOS>ATOM
      1 O001        0.6207   -3.5130    0.4296 O.2     1  UNL1        0.0415
      2 N002        0.6617   -2.4226    1.0119 N.pl3   1  UNL1        0.0804
      3 O003        1.3424   -2.1610    2.0157 O.co2   1  UNL1       -0.5760
      4 C004       -0.1984   -1.3690    0.5120 C.ar    1  UNL1        0.2856
      5 C005       -1.5716   -1.6524    0.5163 C.ar    1  UNL1        0.0165
      6 C006       -2.4517   -0.6718    0.0974 C.ar    1  UNL1       -0.0533
      7 C007       -1.9487    0.5628   -0.3135 C.ar    1  UNL1       -0.0351
      8 C008       -0.5872    0.8522   -0.3305 C.ar    1  UNL1        0.0826
      9 N009       -0.2477    2.0672   -0.7584 N.ar    1  UNL1       -0.2351
     10 C010        1.0532    2.3530   -0.8048 C.ar    1  UNL1        0.1187
     11 N011        2.0410    1.5292   -0.4638 N.ar    1  UNL1       -0.2198
     12 C012        1.7018    0.3042   -0.0198 C.ar    1  UNL1        0.1404
     13 N013        2.7471   -0.5824    0.3332 N.pl3   1  UNL1       -0.2987
     14 C014        4.1234   -0.5148    0.0127 C.ar    1  UNL1        0.0334
     15 C015        4.6057    0.1107   -1.1440 C.ar    1  UNL1       -0.0404
     16 C016        5.9681    0.0965   -1.4609 C.ar    1  UNL1       -0.0590
     17 C017        6.8699   -0.5690   -0.6353 C.ar    1  UNL1       -0.0476
     18 C018        6.3996   -1.2274    0.4965 C.ar    1  UNL1        0.0196
     19 BR019       7.6130   -2.1575    1.6100 Br      1  UNL1       -0.0502
     20 C020        5.0396   -1.2141    0.8143 C.ar    1  UNL1       -0.0265
     21 C021        0.3437   -0.1149    0.0829 C.ar    1  UNL1        0.1173
     22 H022       -1.9492   -2.6187    0.8454 H       1  UNL1        0.0685
     23 H023       -3.5237   -0.8548    0.0885 H       1  UNL1        0.0620
     24 H024       -2.6490    1.3312   -0.6414 H       1  UNL1        0.0639
     25 H025        1.3318    3.3414   -1.1533 H       1  UNL1        0.1048
     26 H026        2.6168   -0.9086    1.2933 H       1  UNL1        0.1536
     27 H027        3.9239    0.6155   -1.8231 H       1  UNL1        0.0636
     28 H028        6.3187    0.6001   -2.3581 H       1  UNL1        0.0618
     29 H029        7.9265   -0.5782   -0.8876 H       1  UNL1        0.0629
     30 H030        4.6923   -1.7513    1.6935 H       1  UNL1        0.0647
@<TRIPOS>BOND
     1     1     2    2
     2     2     3    1
     3     2     4    1
     4     4     5   ar
     5     5     6   ar
     6     6     7   ar
     7     7     8   ar
     8     8     9   ar
     9     9    10   ar
    10    10    11   ar
    11    11    12   ar
    12    12    13    1
    13    13    14    1
    14    14    15   ar
    15    15    16   ar
    16    16    17   ar
    17    17    18   ar
    18    18    19    1
    19    18    20   ar
    20    12    21   ar
    21    21     4   ar
    22    21     8   ar
    23    20    14   ar
    24     5    22    1
    25     6    23    1
    26     7    24    1
    27    10    25    1
    28    13    26    1
    29    15    27    1
    30    16    28    1
    31    17    29    1
    32    20    30    1
