@<TRIPOS>MOLECULE
*****
 42 44 0 0 0
SMALL
GASTEIGER

@<TRIPOS>ATOM
      1 C001        8.4101   -2.0379   -1.8815 C.3     1  UNL1       -0.0128
      2 N002        7.5653   -2.5113   -0.7775 N.3     1  UNL1       -0.3054
      3 C003        7.7348   -3.9702   -0.6733 C.3     1  UNL1       -0.0128
      4 C004        6.1314   -2.1476   -0.9407 C.3     1  UNL1        0.0100
      5 C005        5.3285   -2.3969    0.3650 C.3     1  UNL1       -0.0357
      6 C006        4.9611   -1.1099    1.1009 C.3     1  UNL1       -0.0331
      7 C007        4.0699   -0.1902    0.2439 C.3     1  UNL1        0.0221
      8 N008        2.6698   -0.6244    0.3871 N.pl3   1  UNL1       -0.3256
      9 C009        1.6731    0.2953   -0.0157 C.ar    1  UNL1        0.1299
     10 N010        2.0419    1.5075   -0.4597 N.ar    1  UNL1       -0.2203
     11 C011        1.0620    2.3443   -0.8154 C.ar    1  UNL1        0.1187
     12 N012       -0.2505    2.0935   -0.7705 N.ar    1  UNL1       -0.2353
     13 C013       -0.6102    0.8811   -0.3441 C.ar    1  UNL1        0.0761
     14 C014       -1.9641    0.5697   -0.2939 C.ar    1  UNL1       -0.0345
     15 C015       -2.4204   -0.6819    0.1301 C.ar    1  UNL1       -0.0457
     16 C016       -1.5008   -1.6491    0.5092 C.ar    1  UNL1        0.0187
     17 BR017      -2.0973   -3.3500    1.0727 Br      1  UNL1       -0.0503
     18 C018       -0.1391   -1.3663    0.4719 C.ar    1  UNL1       -0.0353
     19 C019        0.3201   -0.0916    0.0520 C.ar    1  UNL1        0.0412
     20 C020        4.4830   -0.2322   -1.2397 C.3     1  UNL1       -0.0331
     21 C021        5.9260   -0.6905   -1.4250 C.3     1  UNL1       -0.0357
     22 H022        8.4691   -0.9452   -1.9011 H       1  UNL1        0.0391
     23 H023        8.0519   -2.3921   -2.8549 H       1  UNL1        0.0391
     24 H024        9.4437   -2.3812   -1.7530 H       1  UNL1        0.0391
     25 H025        7.3988   -4.4866   -1.5802 H       1  UNL1        0.0391
     26 H026        8.7896   -4.2207   -0.5093 H       1  UNL1        0.0391
     27 H027        7.1946   -4.3926    0.1782 H       1  UNL1        0.0391
     28 H028        5.7037   -2.7996   -1.7164 H       1  UNL1        0.0462
     29 H029        5.8684   -3.0405    1.0666 H       1  UNL1        0.0281
     30 H030        4.4106   -2.9442    0.1130 H       1  UNL1        0.0281
     31 H031        5.8847   -0.5785    1.3649 H       1  UNL1        0.0284
     32 H032        4.4700   -1.3553    2.0505 H       1  UNL1        0.0284
     33 H033        4.1925    0.8242    0.6460 H       1  UNL1        0.0498
     34 H034        2.4586   -0.8900    1.3465 H       1  UNL1        0.1478
     35 H035        1.3613    3.3236   -1.1728 H       1  UNL1        0.1048
     36 H036       -2.6876    1.3237   -0.5981 H       1  UNL1        0.0639
     37 H037       -3.4879   -0.8844    0.1519 H       1  UNL1        0.0629
     38 H038        0.5770   -2.1351    0.7521 H       1  UNL1        0.0636
     39 H039        4.3643    0.7653   -1.6795 H       1  UNL1        0.0284
     40 H040        3.8248   -0.8988   -1.8127 H       1  UNL1        0.0284
     41 H041        6.5880   -0.0021   -0.8835 H       1  UNL1        0.0281
     42 H042        6.1844   -0.6114   -2.4881 H       1  UNL1        0.0281
@<TRIPOS>BOND
     1     1     2    1
     2     2     3    1
     3     2     4    1
     4     4     5    1
     5     5     6    1
     6     6     7    1
     7     7     8    1
     8     8     9    1
     9     9    10   ar
    10    10    11   ar
    11    11    12   ar
    12    12    13   ar
    13    13    14   ar
    14    14    15   ar
    15    15    16   ar
    16    16    17    1
    17    16    18   ar
    18    18    19   ar
    19     7    20    1
    20    20    21    1
    21    21     4    1
    22    19     9   ar
    23    19    13   ar
    24     1    22    1
    25     1    23    1
    26     1    24    1
    27     3    25    1
    28     3    26    1
    29     3    27    1
    30     4    28    1
    31     5    29    1
    32     5    30    1
    33     6    31    1
    34     6    32    1
    35     7    33    1
    36     8    34    1
    37    11    35    1
    38    14    36    1
    39    15    37    1
    40    18    38    1
    41    20    39    1
    42    20    40    1
    43    21    41    1
    44    21    42    1
