@<TRIPOS>MOLECULE
*****
 31 34 0 0 0
SMALL
GASTEIGER

@<TRIPOS>ATOM
      1 BR001       7.4349   -2.1620    2.0594 Br      1  UNL1       -0.0502
      2 C002        6.3029   -1.2623    0.8400 C.ar    1  UNL1        0.0196
      3 C003        6.8512   -0.6343   -0.2738 C.ar    1  UNL1       -0.0476
      4 C004        6.0093    0.0087   -1.1768 C.ar    1  UNL1       -0.0590
      5 C005        4.6285    0.0302   -0.9546 C.ar    1  UNL1       -0.0404
      6 C006        4.0664   -0.5650    0.1822 C.ar    1  UNL1        0.0334
      7 N007        2.6710   -0.6230    0.4027 N.pl3   1  UNL1       -0.2988
      8 C008        1.6697    0.2930   -0.0246 C.ar    1  UNL1        0.1339
      9 N009        2.0371    1.5093   -0.4663 N.ar    1  UNL1       -0.2200
     10 C010        1.0576    2.3458   -0.8146 C.ar    1  UNL1        0.1187
     11 N011       -0.2532    2.0898   -0.7669 N.ar    1  UNL1       -0.2352
     12 C012       -0.6139    0.8779   -0.3431 C.ar    1  UNL1        0.0780
     13 C013       -1.9747    0.5947   -0.2985 C.ar    1  UNL1       -0.0101
     14 C014       -2.3945   -0.6683    0.1299 C.ar    1  UNL1        0.0678
     15 N015       -3.6395   -1.2220    0.2701 N.ar    1  UNL1       -0.2769
     16 N016       -3.6241   -2.4923    0.7127 N.ar    1  UNL1       -0.1812
     17 C017       -2.3228   -2.7578    0.8541 C.ar    1  UNL1        0.0569
     18 C018       -1.5048   -1.6596    0.5116 C.ar    1  UNL1        0.0203
     19 C019       -0.1297   -1.3832    0.4718 C.ar    1  UNL1       -0.0386
     20 C020        0.3171   -0.0982    0.0490 C.ar    1  UNL1        0.0412
     21 C021        4.9240   -1.2416    1.0633 C.ar    1  UNL1       -0.0265
     22 H022        7.9227   -0.6489   -0.4525 H       1  UNL1        0.0629
     23 H023        6.4209    0.4894   -2.0606 H       1  UNL1        0.0618
     24 H024        3.9939    0.5169   -1.6910 H       1  UNL1        0.0636
     25 H025        2.4570   -0.9142    1.3512 H       1  UNL1        0.1536
     26 H026        1.3538    3.3278   -1.1670 H       1  UNL1        0.1048
     27 H027       -2.6929    1.3520   -0.5997 H       1  UNL1        0.0660
     28 H028       -4.5367   -0.7895    0.0801 H       1  UNL1        0.1889
     29 H029       -2.0229   -3.7380    1.2017 H       1  UNL1        0.0854
     30 H030        0.5774   -2.1600    0.7476 H       1  UNL1        0.0632
     31 H031        4.5187   -1.7527    1.9320 H       1  UNL1        0.0647
@<TRIPOS>BOND
     1     1     2    1
     2     2     3   ar
     3     3     4   ar
     4     4     5   ar
     5     5     6   ar
     6     6     7    1
     7     7     8    1
     8     8     9   ar
     9     9    10   ar
    10    10    11   ar
    11    11    12   ar
    12    12    13   ar
    13    13    14   ar
    14    14    15   ar
    15    15    16   ar
    16    16    17   ar
    17    17    18   ar
    18    18    19   ar
    19    19    20   ar
    20     6    21   ar
    21    21     2   ar
    22    20     8   ar
    23    20    12   ar
    24    18    14   ar
    25     3    22    1
    26     4    23    1
    27     5    24    1
    28     7    25    1
    29    10    26    1
    30    13    27    1
    31    15    28    1
    32    17    29    1
    33    19    30    1
    34    21    31    1
