@<TRIPOS>MOLECULE
*****
 36 38 0 0 0
SMALL
GASTEIGER

@<TRIPOS>ATOM
      1 C001       -1.0635   -4.1017    0.7482 C.3     1  UNL1        0.0004
      2 N002       -1.9565   -2.9577    0.9455 N.pl3   1  UNL1       -0.3360
      3 C003       -3.3848   -3.2712    0.9130 C.3     1  UNL1        0.0004
      4 C004       -1.5217   -1.7009    0.5123 C.ar    1  UNL1        0.0300
      5 C005       -2.4047   -0.6793    0.1463 C.ar    1  UNL1       -0.0386
      6 C006       -1.9504    0.5773   -0.2823 C.ar    1  UNL1       -0.0338
      7 C007       -0.6038    0.8872   -0.3484 C.ar    1  UNL1        0.0761
      8 N008       -0.2438    2.1011   -0.7750 N.ar    1  UNL1       -0.2353
      9 C009        1.0676    2.3530   -0.8204 C.ar    1  UNL1        0.1187
     10 N010        2.0445    1.5142   -0.4680 N.ar    1  UNL1       -0.2200
     11 C011        1.6708    0.2996   -0.0251 C.ar    1  UNL1        0.1339
     12 N012        2.6659   -0.6195    0.4112 N.pl3   1  UNL1       -0.2988
     13 C013        4.0640   -0.5635    0.2116 C.ar    1  UNL1        0.0334
     14 C014        4.6444    0.0363   -0.9135 C.ar    1  UNL1       -0.0404
     15 C015        6.0282    0.0124   -1.1154 C.ar    1  UNL1       -0.0590
     16 C016        6.8551   -0.6378   -0.2036 C.ar    1  UNL1       -0.0476
     17 C017        6.2887   -1.2704    0.8985 C.ar    1  UNL1        0.0196
     18 BR018       7.4002   -2.1802    2.1293 Br      1  UNL1       -0.0502
     19 C019        4.9067   -1.2470    1.1016 C.ar    1  UNL1       -0.0265
     20 C020        0.3158   -0.0880    0.0413 C.ar    1  UNL1        0.0422
     21 C021       -0.1584   -1.3665    0.4590 C.ar    1  UNL1       -0.0282
     22 H022       -0.7555   -4.1860   -0.3000 H       1  UNL1        0.0428
     23 H023       -0.1774   -4.0274    1.3872 H       1  UNL1        0.0428
     24 H024       -1.5547   -5.0422    1.0226 H       1  UNL1        0.0428
     25 H025       -3.7582   -3.3013   -0.1165 H       1  UNL1        0.0428
     26 H026       -3.5814   -4.2481    1.3691 H       1  UNL1        0.0428
     27 H027       -3.9647   -2.5467    1.4952 H       1  UNL1        0.0428
     28 H028       -3.4801   -0.8280    0.1660 H       1  UNL1        0.0637
     29 H029       -2.6789    1.3316   -0.5718 H       1  UNL1        0.0639
     30 H030        1.3671    3.3335   -1.1738 H       1  UNL1        0.1048
     31 H031        2.4350   -0.9140    1.3550 H       1  UNL1        0.1536
     32 H032        4.0216    0.5287   -1.6562 H       1  UNL1        0.0636
     33 H033        6.4539    0.4971   -1.9902 H       1  UNL1        0.0618
     34 H034        7.9290   -0.6542   -0.3664 H       1  UNL1        0.0629
     35 H035        4.4866   -1.7611    1.9615 H       1  UNL1        0.0647
     36 H036        0.5809   -2.1080    0.7458 H       1  UNL1        0.0644
@<TRIPOS>BOND
     1     1     2    1
     2     2     3    1
     3     2     4    1
     4     4     5   ar
     5     5     6   ar
     6     6     7   ar
     7     7     8   ar
     8     8     9   ar
     9     9    10   ar
    10    10    11   ar
    11    11    12    1
    12    12    13    1
    13    13    14   ar
    14    14    15   ar
    15    15    16   ar
    16    16    17   ar
    17    17    18    1
    18    17    19   ar
    19    11    20   ar
    20    20    21   ar
    21    21     4   ar
    22    20     7   ar
    23    19    13   ar
    24     1    22    1
    25     1    23    1
    26     1    24    1
    27     3    25    1
    28     3    26    1
    29     3    27    1
    30     5    28    1
    31     6    29    1
    32     9    30    1
    33    12    31    1
    34    14    32    1
    35    15    33    1
    36    16    34    1
    37    19    35    1
    38    21    36    1
