@<TRIPOS>MOLECULE
*****
 35 37 0 0 0
SMALL
GASTEIGER

@<TRIPOS>ATOM
      1 O001       10.0407    1.3337   -1.4041 O.3     1  UNL1       -0.5068
      2 C002        8.7216    0.9919   -1.3558 C.ar    1  UNL1        0.1169
      3 C003        7.7217    1.9586   -1.3616 C.ar    1  UNL1       -0.0199
      4 C004        6.3838    1.5620   -1.3103 C.ar    1  UNL1       -0.0551
      5 C005        6.0452    0.2017   -1.2565 C.ar    1  UNL1       -0.0457
      6 C006        4.5972   -0.2172   -1.1811 C.3     1  UNL1       -0.0121
      7 C007        4.0644   -0.1698    0.2569 C.3     1  UNL1        0.0144
      8 N008        2.6751   -0.6300    0.3484 N.pl3   1  UNL1       -0.3282
      9 C009        1.6747    0.2867   -0.0333 C.ar    1  UNL1        0.1297
     10 N010        2.0408    1.5170   -0.4308 N.ar    1  UNL1       -0.2203
     11 C011        1.0605    2.3546   -0.7836 C.ar    1  UNL1        0.1187
     12 N012       -0.2494    2.0887   -0.7794 N.ar    1  UNL1       -0.2353
     13 C013       -0.6087    0.8741   -0.3594 C.ar    1  UNL1        0.0761
     14 C014       -1.9624    0.5609   -0.3196 C.ar    1  UNL1       -0.0345
     15 C015       -2.4215   -0.6840    0.1203 C.ar    1  UNL1       -0.0457
     16 C016       -1.5051   -1.6387    0.5364 C.ar    1  UNL1        0.0187
     17 BR017      -2.1064   -3.3217    1.1468 Br      1  UNL1       -0.0503
     18 C018       -0.1431   -1.3555    0.5056 C.ar    1  UNL1       -0.0353
     19 C019        0.3209   -0.0957    0.0465 C.ar    1  UNL1        0.0411
     20 C020        7.0678   -0.7565   -1.2469 C.ar    1  UNL1       -0.0551
     21 C021        8.4049   -0.3598   -1.2984 C.ar    1  UNL1       -0.0199
     22 H022       10.1067    2.3017   -1.4427 H       1  UNL1        0.2921
     23 H023        7.9602    3.0164   -1.4041 H       1  UNL1        0.0654
     24 H024        5.6022    2.3197   -1.3112 H       1  UNL1        0.0621
     25 H025        4.4864   -1.2319   -1.5855 H       1  UNL1        0.0328
     26 H026        4.0069    0.4247   -1.8459 H       1  UNL1        0.0328
     27 H027        4.1859    0.8249    0.7049 H       1  UNL1        0.0465
     28 H028        4.6667   -0.8448    0.8781 H       1  UNL1        0.0465
     29 H029        2.5344   -1.5123   -0.1350 H       1  UNL1        0.1475
     30 H030        1.3572    3.3461   -1.1077 H       1  UNL1        0.1048
     31 H031       -2.6842    1.3111   -0.6369 H       1  UNL1        0.0639
     32 H032       -3.4891   -0.8865    0.1379 H       1  UNL1        0.0629
     33 H033        0.5666   -2.1023    0.8526 H       1  UNL1        0.0636
     34 H034        6.8328   -1.8171   -1.1999 H       1  UNL1        0.0621
     35 H035        9.1971   -1.1029   -1.2931 H       1  UNL1        0.0654
@<TRIPOS>BOND
     1     1     2    1
     2     2     3   ar
     3     3     4   ar
     4     4     5   ar
     5     5     6    1
     6     6     7    1
     7     7     8    1
     8     8     9    1
     9     9    10   ar
    10    10    11   ar
    11    11    12   ar
    12    12    13   ar
    13    13    14   ar
    14    14    15   ar
    15    15    16   ar
    16    16    17    1
    17    16    18   ar
    18    18    19   ar
    19     5    20   ar
    20    20    21   ar
    21    21     2   ar
    22    19     9   ar
    23    19    13   ar
    24     1    22    1
    25     3    23    1
    26     4    24    1
    27     6    25    1
    28     6    26    1
    29     7    27    1
    30     7    28    1
    31     8    29    1
    32    11    30    1
    33    14    31    1
    34    15    32    1
    35    18    33    1
    36    20    34    1
    37    21    35    1
