@<TRIPOS>MOLECULE
*****
 32 34 0 0 0
SMALL
GASTEIGER

@<TRIPOS>ATOM
      1 C001        0.3670   -3.6456    1.0643 C.3     1  UNL1        0.0788
      2 O002        0.7678   -2.2809    0.9817 O.3     1  UNL1       -0.4943
      3 C003       -0.1655   -1.3786    0.5212 C.ar    1  UNL1        0.1326
      4 C004       -1.5389   -1.6404    0.5373 C.ar    1  UNL1       -0.0191
      5 C005       -2.4311   -0.6696    0.1043 C.ar    1  UNL1       -0.0563
      6 C006       -1.9510    0.5635   -0.3303 C.ar    1  UNL1       -0.0353
      7 C007       -0.5963    0.8601   -0.3508 C.ar    1  UNL1        0.0795
      8 N008       -0.2516    2.0775   -0.7740 N.ar    1  UNL1       -0.2352
      9 C009        1.0521    2.3582   -0.7923 C.ar    1  UNL1        0.1187
     10 N010        2.0373    1.5345   -0.4377 N.ar    1  UNL1       -0.2199
     11 C011        1.6879    0.3054   -0.0109 C.ar    1  UNL1        0.1374
     12 N012        2.7087   -0.6225    0.3166 N.pl3   1  UNL1       -0.2987
     13 C013        4.1123   -0.5407    0.2681 C.ar    1  UNL1        0.0334
     14 C014        4.8104    0.3843   -0.5159 C.ar    1  UNL1       -0.0404
     15 C015        6.2096    0.3957   -0.5565 C.ar    1  UNL1       -0.0590
     16 C016        6.9381   -0.5347    0.1784 C.ar    1  UNL1       -0.0476
     17 C017        6.2595   -1.4770    0.9432 C.ar    1  UNL1        0.0196
     18 BR018       7.2355   -2.7596    1.9330 Br      1  UNL1       -0.0502
     19 C019        4.8632   -1.4881    0.9838 C.ar    1  UNL1       -0.0265
     20 C020        0.3301   -0.1099    0.0676 C.ar    1  UNL1        0.0820
     21 H021       -0.3114   -3.8000    1.9091 H       1  UNL1        0.0660
     22 H022       -0.0802   -3.9908    0.1261 H       1  UNL1        0.0660
     23 H023        1.2648   -4.2444    1.2456 H       1  UNL1        0.0660
     24 H024       -1.9442   -2.5808    0.8959 H       1  UNL1        0.0654
     25 H025       -3.5010   -0.8626    0.1135 H       1  UNL1        0.0619
     26 H026       -2.6596    1.3214   -0.6600 H       1  UNL1        0.0639
     27 H027        1.3377    3.3479   -1.1309 H       1  UNL1        0.1048
     28 H028        2.3610   -1.2887    1.0020 H       1  UNL1        0.1536
     29 H029        4.2773    1.1100   -1.1227 H       1  UNL1        0.0636
     30 H030        6.7239    1.1309   -1.1700 H       1  UNL1        0.0618
     31 H031        8.0236   -0.5210    0.1415 H       1  UNL1        0.0629
     32 H032        4.3545   -2.2395    1.5818 H       1  UNL1        0.0647
@<TRIPOS>BOND
     1     1     2    1
     2     2     3    1
     3     3     4   ar
     4     4     5   ar
     5     5     6   ar
     6     6     7   ar
     7     7     8   ar
     8     8     9   ar
     9     9    10   ar
    10    10    11   ar
    11    11    12    1
    12    12    13    1
    13    13    14   ar
    14    14    15   ar
    15    15    16   ar
    16    16    17   ar
    17    17    18    1
    18    17    19   ar
    19    11    20   ar
    20    20     3   ar
    21    20     7   ar
    22    19    13   ar
    23     1    21    1
    24     1    22    1
    25     1    23    1
    26     4    24    1
    27     5    25    1
    28     6    26    1
    29     9    27    1
    30    12    28    1
    31    14    29    1
    32    15    30    1
    33    16    31    1
    34    19    32    1
