@<TRIPOS>MOLECULE
*****
 37 39 0 0 0
SMALL
GASTEIGER

@<TRIPOS>ATOM
      1 C001       -2.0285   -6.4594    1.0188 C.3     1  UNL1       -0.0276
      2 C002       -2.7671   -5.3517    1.7519 C.3     1  UNL1        0.1131
      3 O003       -2.5109   -5.4892    3.1452 O.3     1  UNL1       -0.3795
      4 C004       -2.3246   -4.0266    1.3040 C.1     1  UNL1       -0.0660
      5 C005       -1.9576   -2.9418    0.9408 C.1     1  UNL1       -0.0637
      6 C006       -1.5071   -1.6551    0.5119 C.ar    1  UNL1        0.0258
      7 C007       -2.4210   -0.6800    0.1322 C.ar    1  UNL1       -0.0443
      8 C008       -1.9626    0.5710   -0.2928 C.ar    1  UNL1       -0.0344
      9 C009       -0.6087    0.8799   -0.3447 C.ar    1  UNL1        0.0761
     10 N010       -0.2493    2.0932   -0.7688 N.ar    1  UNL1       -0.2353
     11 C011        1.0619    2.3488   -0.8144 C.ar    1  UNL1        0.1187
     12 N012        2.0416    1.5117   -0.4634 N.ar    1  UNL1       -0.2200
     13 C013        1.6738    0.2951   -0.0232 C.ar    1  UNL1        0.1339
     14 N014        2.6756   -0.6236    0.3966 N.pl3   1  UNL1       -0.2988
     15 C015        4.0707   -0.5549    0.1816 C.ar    1  UNL1        0.0339
     16 C016        4.9286   -1.2296    1.0678 C.ar    1  UNL1       -0.0377
     17 C017        6.3110   -1.2417    0.8635 C.ar    1  UNL1       -0.0232
     18 C018        6.8466   -0.5991   -0.2458 C.ar    1  UNL1        0.1417
     19 F019        8.1754   -0.6241   -0.4258 F       1  UNL1       -0.2040
     20 C020        6.0141    0.0436   -1.1561 C.ar    1  UNL1        0.0778
     21 CL021       6.6704    0.8172   -2.5482 Cl      1  UNL1       -0.0805
     22 C022        4.6323    0.0540   -0.9500 C.ar    1  UNL1       -0.0194
     23 C023        0.3206   -0.0941    0.0486 C.ar    1  UNL1        0.0416
     24 C024       -0.1432   -1.3686    0.4690 C.ar    1  UNL1       -0.0338
     25 H025       -2.3559   -7.4409    1.3785 H       1  UNL1        0.0264
     26 H026       -2.1986   -6.4086   -0.0617 H       1  UNL1        0.0264
     27 H027       -0.9485   -6.4027    1.1992 H       1  UNL1        0.0264
     28 H028       -3.8450   -5.4659    1.5960 H       1  UNL1        0.0728
     29 H029       -2.9237   -4.7244    3.5812 H       1  UNL1        0.2111
     30 H030       -3.4897   -0.8796    0.1550 H       1  UNL1        0.0630
     31 H031       -2.6854    1.3263   -0.5955 H       1  UNL1        0.0639
     32 H032        1.3589    3.3305   -1.1675 H       1  UNL1        0.1048
     33 H033        2.4543   -0.9362    1.3369 H       1  UNL1        0.1536
     34 H034        4.5272   -1.7510    1.9338 H       1  UNL1        0.0637
     35 H035        6.9706   -1.7527    1.5579 H       1  UNL1        0.0647
     36 H036        3.9941    0.5365   -1.6852 H       1  UNL1        0.0652
     37 H037        0.5662   -2.1450    0.7480 H       1  UNL1        0.0637
@<TRIPOS>BOND
     1     1     2    1
     2     2     3    1
     3     2     4    1
     4     4     5    3
     5     5     6    1
     6     6     7   ar
     7     7     8   ar
     8     8     9   ar
     9     9    10   ar
    10    10    11   ar
    11    11    12   ar
    12    12    13   ar
    13    13    14    1
    14    14    15    1
    15    15    16   ar
    16    16    17   ar
    17    17    18   ar
    18    18    19    1
    19    18    20   ar
    20    20    21    1
    21    20    22   ar
    22    13    23   ar
    23    23    24   ar
    24    24     6   ar
    25    23     9   ar
    26    22    15   ar
    27     1    25    1
    28     1    26    1
    29     1    27    1
    30     2    28    1
    31     3    29    1
    32     7    30    1
    33     8    31    1
    34    11    32    1
    35    14    33    1
    36    16    34    1
    37    17    35    1
    38    22    36    1
    39    24    37    1
