@<TRIPOS>MOLECULE
*****
 40 43 0 0 0
SMALL
GASTEIGER

@<TRIPOS>ATOM
      1 C001       -0.9543   -3.2503    3.3464 C.3     1  UNL1       -0.0185
      2 C002       -1.7282   -3.6746    2.1567 C.ar    1  UNL1        0.0885
      3 N003       -2.3281   -4.8713    2.1411 N.ar    1  UNL1       -0.0827
      4 O004       -2.9590   -4.9606    0.9154 O.2     1  UNL1       -0.3591
      5 C005       -2.7333   -3.8260    0.1995 C.ar    1  UNL1        0.1421
      6 C006       -3.3293   -3.7854   -1.1499 C.3     1  UNL1       -0.0031
      7 C007       -1.9598   -2.9651    0.9479 C.ar    1  UNL1        0.0466
      8 C008       -1.5078   -1.6629    0.5106 C.ar    1  UNL1       -0.0120
      9 C009       -2.4194   -0.6810    0.1286 C.ar    1  UNL1       -0.0518
     10 C010       -1.9616    0.5713   -0.2945 C.ar    1  UNL1       -0.0350
     11 C011       -0.6087    0.8822   -0.3434 C.ar    1  UNL1        0.0760
     12 N012       -0.2479    2.0942   -0.7708 N.ar    1  UNL1       -0.2353
     13 C013        1.0645    2.3442   -0.8177 C.ar    1  UNL1        0.1187
     14 N014        2.0444    1.5068   -0.4614 N.ar    1  UNL1       -0.2203
     15 C015        1.6719    0.2976   -0.0083 C.ar    1  UNL1        0.1300
     16 N016        2.6703   -0.6184    0.3792 N.pl3   1  UNL1       -0.3214
     17 C017        4.0375   -0.1027    0.3299 C.3     1  UNL1        0.0686
     18 C018        5.0316   -1.0840    0.8554 C.ar    1  UNL1        0.1218
     19 C019        6.0157   -1.8498    0.2653 C.ar    1  UNL1       -0.0192
     20 C020        6.6192   -2.5954    1.3065 C.ar    1  UNL1       -0.0236
     21 C021        5.9637   -2.2414    2.4622 C.ar    1  UNL1        0.0921
     22 O022        4.9954   -1.3264    2.1998 O.2     1  UNL1       -0.4662
     23 C023        0.3191   -0.0902    0.0548 C.ar    1  UNL1        0.0407
     24 C024       -0.1431   -1.3657    0.4738 C.ar    1  UNL1       -0.0414
     25 H025        0.1183   -3.3699    3.1638 H       1  UNL1        0.0294
     26 H026       -1.2175   -3.8435    4.2283 H       1  UNL1        0.0294
     27 H027       -1.1494   -2.1994    3.5828 H       1  UNL1        0.0294
     28 H028       -4.2607   -3.2113   -1.1373 H       1  UNL1        0.0309
     29 H029       -2.6449   -3.3190   -1.8653 H       1  UNL1        0.0309
     30 H030       -3.5550   -4.7931   -1.5130 H       1  UNL1        0.0309
     31 H031       -3.4903   -0.8703    0.1584 H       1  UNL1        0.0624
     32 H032       -2.6848    1.3268   -0.5958 H       1  UNL1        0.0639
     33 H033        1.3637    3.3225   -1.1779 H       1  UNL1        0.1048
     34 H034        2.4728   -0.9603    1.3161 H       1  UNL1        0.1479
     35 H035        4.1251    0.8124    0.9306 H       1  UNL1        0.0542
     36 H036        4.3056    0.1462   -0.7047 H       1  UNL1        0.0542
     37 H037        6.2611   -1.8687   -0.7875 H       1  UNL1        0.0652
     38 H038        7.4293   -3.3064    1.2254 H       1  UNL1        0.0649
     39 H039        6.0602   -2.5361    3.4980 H       1  UNL1        0.1029
     40 H040        0.5790   -2.1338    0.7455 H       1  UNL1        0.0631
@<TRIPOS>BOND
     1     1     2    1
     2     2     3   ar
     3     3     4   ar
     4     4     5   ar
     5     5     6    1
     6     5     7   ar
     7     7     8    1
     8     8     9   ar
     9     9    10   ar
    10    10    11   ar
    11    11    12   ar
    12    12    13   ar
    13    13    14   ar
    14    14    15   ar
    15    15    16    1
    16    16    17    1
    17    17    18    1
    18    18    19   ar
    19    19    20   ar
    20    20    21   ar
    21    21    22   ar
    22    15    23   ar
    23    23    24   ar
    24     7     2   ar
    25    24     8   ar
    26    23    11   ar
    27    22    18   ar
    28     1    25    1
    29     1    26    1
    30     1    27    1
    31     6    28    1
    32     6    29    1
    33     6    30    1
    34     9    31    1
    35    10    32    1
    36    13    33    1
    37    16    34    1
    38    17    35    1
    39    17    36    1
    40    19    37    1
    41    20    38    1
    42    21    39    1
    43    24    40    1
