@<TRIPOS>MOLECULE
*****
 36 38 0 0 0
SMALL
GASTEIGER

@<TRIPOS>ATOM
      1 N001       -1.9119   -2.9526    0.9067 N.pl3   1  UNL1       -0.3568
      2 C002       -1.5084   -1.6496    0.5730 C.ar    1  UNL1        0.0439
      3 C003       -0.1459   -1.3540    0.5024 C.ar    1  UNL1       -0.0271
      4 C004        0.3178   -0.0914    0.0485 C.ar    1  UNL1        0.0419
      5 C005        1.6720    0.2902   -0.0317 C.ar    1  UNL1        0.1297
      6 N006        2.6717   -0.6406    0.3355 N.pl3   1  UNL1       -0.3282
      7 C007        4.0577   -0.1693    0.2449 C.3     1  UNL1        0.0144
      8 C008        4.4451    0.6798    1.4619 C.3     1  UNL1       -0.0121
      9 C009        5.8892    1.1185    1.3996 C.ar    1  UNL1       -0.0458
     10 C010        6.2490    2.2534    0.6586 C.ar    1  UNL1       -0.0571
     11 C011        7.5846    2.6534    0.5823 C.ar    1  UNL1       -0.0431
     12 C012        8.5655    1.9184    1.2442 C.ar    1  UNL1        0.0410
     13 CL013      10.2118    2.4100    1.1496 Cl      1  UNL1       -0.0835
     14 C014        8.2226    0.7865    1.9807 C.ar    1  UNL1       -0.0431
     15 C015        6.8869    0.3858    2.0571 C.ar    1  UNL1       -0.0571
     16 N016        2.0407    1.5188   -0.4307 N.ar    1  UNL1       -0.2203
     17 C017        1.0612    2.3585   -0.7804 C.ar    1  UNL1        0.1187
     18 N018       -0.2491    2.0934   -0.7722 N.ar    1  UNL1       -0.2352
     19 C019       -0.6103    0.8774   -0.3569 C.ar    1  UNL1        0.0775
     20 C020       -1.9599    0.5622   -0.3356 C.ar    1  UNL1       -0.0154
     21 C021       -2.4081   -0.6867    0.0993 C.ar    1  UNL1        0.0636
     22 CL022      -4.1086   -1.0040    0.0790 Cl      1  UNL1       -0.0816
     23 H023       -1.3090   -3.4252    1.5727 H       1  UNL1        0.1424
     24 H024       -2.8968   -3.0074    1.1623 H       1  UNL1        0.1424
     25 H025        0.5735   -2.1077    0.8143 H       1  UNL1        0.0644
     26 H026        2.5372   -1.4744   -0.2328 H       1  UNL1        0.1475
     27 H027        4.7014   -1.0583    0.2232 H       1  UNL1        0.0465
     28 H028        4.2479    0.3531   -0.7016 H       1  UNL1        0.0465
     29 H029        3.8082    1.5682    1.5489 H       1  UNL1        0.0328
     30 H030        4.2727    0.1086    2.3836 H       1  UNL1        0.0328
     31 H031        5.4877    2.8320    0.1381 H       1  UNL1        0.0621
     32 H032        7.8512    3.5360    0.0073 H       1  UNL1        0.0632
     33 H033        8.9880    0.2133    2.4969 H       1  UNL1        0.0632
     34 H034        6.6300   -0.4996    2.6349 H       1  UNL1        0.0621
     35 H035        1.3581    3.3497   -1.1054 H       1  UNL1        0.1048
     36 H036       -2.6769    1.3077   -0.6712 H       1  UNL1        0.0654
@<TRIPOS>BOND
     1     1     2    1
     2     2     3   ar
     3     3     4   ar
     4     4     5   ar
     5     5     6    1
     6     6     7    1
     7     7     8    1
     8     8     9    1
     9     9    10   ar
    10    10    11   ar
    11    11    12   ar
    12    12    13    1
    13    12    14   ar
    14    14    15   ar
    15     5    16   ar
    16    16    17   ar
    17    17    18   ar
    18    18    19   ar
    19    19    20   ar
    20    20    21   ar
    21    21    22    1
    22    21     2   ar
    23    19     4   ar
    24    15     9   ar
    25     1    23    1
    26     1    24    1
    27     3    25    1
    28     6    26    1
    29     7    27    1
    30     7    28    1
    31     8    29    1
    32     8    30    1
    33    10    31    1
    34    11    32    1
    35    14    33    1
    36    15    34    1
    37    17    35    1
    38    20    36    1
