@<TRIPOS>MOLECULE
*****
 30 32 0 0 0
SMALL
GASTEIGER

@<TRIPOS>ATOM
      1 N001       -2.9525    1.5415   -0.6406 N.pl3   1  UNL1       -0.3563
      2 C002       -1.9820    0.5488   -0.3457 C.ar    1  UNL1        0.0510
      3 C003       -2.4207   -0.6910    0.1357 C.ar    1  UNL1       -0.0389
      4 C004       -1.5020   -1.6467    0.5485 C.ar    1  UNL1       -0.0592
      5 C005       -0.1426   -1.3521    0.5032 C.ar    1  UNL1       -0.0491
      6 C006        0.3180   -0.0895    0.0478 C.ar    1  UNL1        0.0422
      7 C007        1.6728    0.2973   -0.0201 C.ar    1  UNL1        0.1339
      8 N008        2.6733   -0.6518    0.3314 N.pl3   1  UNL1       -0.2988
      9 C009        4.0455   -0.4287    0.5874 C.ar    1  UNL1        0.0334
     10 C010        4.5296    0.7716    1.1235 C.ar    1  UNL1       -0.0404
     11 C011        5.8846    0.9349    1.4296 C.ar    1  UNL1       -0.0590
     12 C012        6.7768   -0.1143    1.2273 C.ar    1  UNL1       -0.0476
     13 C013        6.3033   -1.3247    0.7309 C.ar    1  UNL1        0.0196
     14 BR014       7.5020   -2.7657    0.4772 Br      1  UNL1       -0.0502
     15 C015        4.9502   -1.4892    0.4246 C.ar    1  UNL1       -0.0265
     16 N016        2.0451    1.5249   -0.4237 N.ar    1  UNL1       -0.2200
     17 C017        1.0706    2.3627   -0.7821 C.ar    1  UNL1        0.1188
     18 N018       -0.2381    2.0972   -0.7846 N.ar    1  UNL1       -0.2334
     19 C019       -0.6127    0.8782   -0.3595 C.ar    1  UNL1        0.0966
     20 H020       -3.7864    1.1795   -1.0884 H       1  UNL1        0.1424
     21 H021       -2.5150    2.3080   -1.1553 H       1  UNL1        0.1424
     22 H022       -3.4841   -0.9050    0.2036 H       1  UNL1        0.0637
     23 H023       -1.8440   -2.6079    0.9237 H       1  UNL1        0.0618
     24 H024        0.5610   -2.1029    0.8564 H       1  UNL1        0.0625
     25 H025        2.5284   -1.4910   -0.2205 H       1  UNL1        0.1536
     26 H026        3.8522    1.5996    1.3174 H       1  UNL1        0.0636
     27 H027        6.2360    1.8811    1.8329 H       1  UNL1        0.0618
     28 H028        7.8278    0.0179    1.4684 H       1  UNL1        0.0629
     29 H029        4.6021   -2.4488    0.0529 H       1  UNL1        0.0647
     30 H030        1.3713    3.3524   -1.1080 H       1  UNL1        0.1048
@<TRIPOS>BOND
     1     1     2    1
     2     2     3   ar
     3     3     4   ar
     4     4     5   ar
     5     5     6   ar
     6     6     7   ar
     7     7     8    1
     8     8     9    1
     9     9    10   ar
    10    10    11   ar
    11    11    12   ar
    12    12    13   ar
    13    13    14    1
    14    13    15   ar
    15     7    16   ar
    16    16    17   ar
    17    17    18   ar
    18    18    19   ar
    19    19     2   ar
    20    19     6   ar
    21    15     9   ar
    22     1    20    1
    23     1    21    1
    24     3    22    1
    25     4    23    1
    26     5    24    1
    27     8    25    1
    28    10    26    1
    29    11    27    1
    30    12    28    1
    31    15    29    1
    32    17    30    1
