@<TRIPOS>MOLECULE
*****
 42 45 0 0 0
SMALL
GASTEIGER

@<TRIPOS>ATOM
      1 C001       -4.7115   -0.0949   -0.2789 C.3     1  UNL1        0.0790
      2 O002       -3.7498   -1.0467    0.1551 O.3     1  UNL1       -0.4914
      3 C003       -2.4266   -0.6847    0.1087 C.ar    1  UNL1        0.1635
      4 C004       -1.9606    0.5601   -0.3293 C.ar    1  UNL1        0.0098
      5 C005       -0.6076    0.8729   -0.3569 C.ar    1  UNL1        0.0797
      6 N006       -0.2475    2.0875   -0.7796 N.ar    1  UNL1       -0.2352
      7 C007        1.0613    2.3586   -0.7879 C.ar    1  UNL1        0.1187
      8 N008        2.0403    1.5258   -0.4286 N.ar    1  UNL1       -0.2200
      9 C009        1.6741    0.2986   -0.0182 C.ar    1  UNL1        0.1340
     10 N010        2.6778   -0.6495    0.3261 N.pl3   1  UNL1       -0.2988
     11 C011        4.0502   -0.4164    0.5894 C.ar    1  UNL1        0.0344
     12 C012        4.5094    0.7797    1.1568 C.ar    1  UNL1       -0.0398
     13 C013        5.8614    0.9794    1.4793 C.ar    1  UNL1       -0.0491
     14 C014        6.7735   -0.0624    1.2489 C.ar    1  UNL1        0.0225
     15 C015        8.1683   -0.2652    1.4291 C.ar    1  UNL1        0.0674
     16 C016        9.1608    0.6951    1.9690 C.3     1  UNL1       -0.0200
     17 N017        8.5484   -1.4914    1.0461 N.ar    1  UNL1       -0.1780
     18 N018        7.4074   -2.0632    0.6267 N.ar    1  UNL1       -0.2767
     19 C019        6.3056   -1.2572    0.7200 C.ar    1  UNL1        0.0677
     20 C020        4.9599   -1.4735    0.3952 C.ar    1  UNL1       -0.0151
     21 C021        0.3202   -0.0909    0.0550 C.ar    1  UNL1        0.0441
     22 C022       -0.1432   -1.3507    0.5153 C.ar    1  UNL1       -0.0038
     23 C023       -1.5065   -1.6496    0.5464 C.ar    1  UNL1        0.1623
     24 O024       -2.0317   -2.8430    0.9703 O.3     1  UNL1       -0.4914
     25 C025       -1.1537   -3.7689    1.5947 C.3     1  UNL1        0.0790
     26 H026       -4.5682    0.1585   -1.3344 H       1  UNL1        0.0660
     27 H027       -4.6925    0.8006    0.3507 H       1  UNL1        0.0660
     28 H028       -5.7014   -0.5504   -0.1783 H       1  UNL1        0.0660
     29 H029       -2.6485    1.3309   -0.6628 H       1  UNL1        0.0677
     30 H030        1.3564    3.3475   -1.1217 H       1  UNL1        0.1048
     31 H031        2.5490   -1.4740   -0.2512 H       1  UNL1        0.1536
     32 H032        3.8118    1.5873    1.3659 H       1  UNL1        0.0636
     33 H033        6.1853    1.9233    1.9065 H       1  UNL1        0.0625
     34 H034        9.1743    1.6089    1.3664 H       1  UNL1        0.0293
     35 H035        8.9081    0.9645    2.9995 H       1  UNL1        0.0293
     36 H036       10.1717    0.2746    1.9673 H       1  UNL1        0.0293
     37 H037        7.4493   -3.0152    0.2830 H       1  UNL1        0.1889
     38 H038        4.6367   -2.4295   -0.0021 H       1  UNL1        0.0657
     39 H039        0.5852   -2.0781    0.8574 H       1  UNL1        0.0663
     40 H040       -0.4203   -4.1562    0.8800 H       1  UNL1        0.0660
     41 H041       -1.7533   -4.6141    1.9460 H       1  UNL1        0.0660
     42 H042       -0.6613   -3.3249    2.4663 H       1  UNL1        0.0660
@<TRIPOS>BOND
     1     1     2    1
     2     2     3    1
     3     3     4   ar
     4     4     5   ar
     5     5     6   ar
     6     6     7   ar
     7     7     8   ar
     8     8     9   ar
     9     9    10    1
    10    10    11    1
    11    11    12   ar
    12    12    13   ar
    13    13    14   ar
    14    14    15   ar
    15    15    16    1
    16    15    17   ar
    17    17    18   ar
    18    18    19   ar
    19    19    20   ar
    20     9    21   ar
    21    21    22   ar
    22    22    23   ar
    23    23    24    1
    24    24    25    1
    25    23     3   ar
    26    21     5   ar
    27    20    11   ar
    28    19    14   ar
    29     1    26    1
    30     1    27    1
    31     1    28    1
    32     4    29    1
    33     7    30    1
    34    10    31    1
    35    12    32    1
    36    13    33    1
    37    16    34    1
    38    16    35    1
    39    16    36    1
    40    18    37    1
    41    20    38    1
    42    22    39    1
    43    25    40    1
    44    25    41    1
    45    25    42    1
