@<TRIPOS>MOLECULE
*****
 43 46 0 0 0
SMALL
GASTEIGER

@<TRIPOS>ATOM
      1 C001       -4.7218   -0.1028   -0.2339 C.3     1  UNL1        0.0790
      2 O002       -3.7517   -1.0509    0.1892 O.3     1  UNL1       -0.4914
      3 C003       -2.4346   -0.6818    0.1190 C.ar    1  UNL1        0.1635
      4 C004       -1.9674    0.5588   -0.3252 C.ar    1  UNL1        0.0098
      5 C005       -0.6102    0.8681   -0.3609 C.ar    1  UNL1        0.0797
      6 N006       -0.2496    2.0850   -0.7766 N.ar    1  UNL1       -0.2352
      7 C007        1.0605    2.3565   -0.7799 C.ar    1  UNL1        0.1187
      8 N008        2.0429    1.5228   -0.4273 N.ar    1  UNL1       -0.2203
      9 C009        1.6748    0.2899   -0.0368 C.ar    1  UNL1        0.1300
     10 N010        2.6846   -0.6362    0.3512 N.pl3   1  UNL1       -0.3251
     11 C011        4.0845   -0.1808    0.3712 C.3     1  UNL1        0.0294
     12 C012        5.1929   -1.1870    0.4566 C.3     1  UNL1       -0.0255
     13 C013        5.0094   -0.3842   -0.8105 C.3     1  UNL1        0.0042
     14 C014        6.0236    0.6744   -1.1751 C.ar    1  UNL1       -0.0425
     15 C015        7.3858    0.3605   -1.3199 C.ar    1  UNL1       -0.0582
     16 C016        8.3269    1.3366   -1.6583 C.ar    1  UNL1       -0.0615
     17 C017        7.9204    2.6506   -1.8715 C.ar    1  UNL1       -0.0617
     18 C018        6.5756    2.9878   -1.7423 C.ar    1  UNL1       -0.0615
     19 C019        5.6404    2.0058   -1.4062 C.ar    1  UNL1       -0.0582
     20 C020        0.3223   -0.0985    0.0407 C.ar    1  UNL1        0.0438
     21 C021       -0.1382   -1.3561    0.4969 C.ar    1  UNL1       -0.0038
     22 C022       -1.5035   -1.6303    0.5499 C.ar    1  UNL1        0.1623
     23 O023       -1.9347   -2.8636    0.9696 O.3     1  UNL1       -0.4914
     24 C024       -1.7509   -3.0141    2.3781 C.3     1  UNL1        0.0790
     25 H025       -4.6892    0.7998    0.3860 H       1  UNL1        0.0660
     26 H026       -4.6006    0.1413   -1.2944 H       1  UNL1        0.0660
     27 H027       -5.7088   -0.5573   -0.1068 H       1  UNL1        0.0660
     28 H028       -2.6557    1.3320   -0.6539 H       1  UNL1        0.0677
     29 H029        1.3535    3.3504   -1.0990 H       1  UNL1        0.1048
     30 H030        2.5312   -1.5007   -0.1614 H       1  UNL1        0.1478
     31 H031        4.2151    0.7156    0.9757 H       1  UNL1        0.0504
     32 H032        4.9399   -2.2402    0.4325 H       1  UNL1        0.0290
     33 H033        6.0237   -0.9540    1.1124 H       1  UNL1        0.0290
     34 H034        4.5945   -0.9253   -1.6588 H       1  UNL1        0.0367
     35 H035        7.7219   -0.6603   -1.1532 H       1  UNL1        0.0620
     36 H036        9.3754    1.0684   -1.7539 H       1  UNL1        0.0618
     37 H037        8.6498    3.4127   -2.1299 H       1  UNL1        0.0618
     38 H038        6.2529    4.0142   -1.9002 H       1  UNL1        0.0618
     39 H039        4.5922    2.2853   -1.3061 H       1  UNL1        0.0620
     40 H040        0.5648   -2.1196    0.8180 H       1  UNL1        0.0663
     41 H041       -2.3758   -3.8502    2.7060 H       1  UNL1        0.0660
     42 H042       -0.7062   -3.2599    2.6039 H       1  UNL1        0.0660
     43 H043       -2.0631   -2.1190    2.9330 H       1  UNL1        0.0660
@<TRIPOS>BOND
     1     1     2    1
     2     2     3    1
     3     3     4   ar
     4     4     5   ar
     5     5     6   ar
     6     6     7   ar
     7     7     8   ar
     8     8     9   ar
     9     9    10    1
    10    10    11    1
    11    11    12    1
    12    12    13    1
    13    13    14    1
    14    14    15   ar
    15    15    16   ar
    16    16    17   ar
    17    17    18   ar
    18    18    19   ar
    19     9    20   ar
    20    20    21   ar
    21    21    22   ar
    22    22    23    1
    23    23    24    1
    24    22     3   ar
    25    20     5   ar
    26    13    11    1
    27    19    14   ar
    28     1    25    1
    29     1    26    1
    30     1    27    1
    31     4    28    1
    32     7    29    1
    33    10    30    1
    34    11    31    1
    35    12    32    1
    36    12    33    1
    37    13    34    1
    38    15    35    1
    39    16    36    1
    40    17    37    1
    41    18    38    1
    42    19    39    1
    43    21    40    1
    44    24    41    1
    45    24    42    1
    46    24    43    1
