@<TRIPOS>MOLECULE
*****
 40 43 0 0 0
SMALL
GASTEIGER

@<TRIPOS>ATOM
      1 C001       -3.5403   -2.3760    3.0305 C.3     1  UNL1       -0.0185
      2 C002       -2.8569   -3.2747    2.0715 C.ar    1  UNL1        0.0885
      3 N003       -3.0334   -4.5994    2.1524 N.ar    1  UNL1       -0.0827
      4 O004       -2.2677   -5.1443    1.1399 O.2     1  UNL1       -0.3591
      5 C005       -1.6417   -4.1509    0.4528 C.ar    1  UNL1        0.1421
      6 C006       -0.7988   -4.5811   -0.6793 C.3     1  UNL1       -0.0031
      7 C007       -1.9769   -2.9357    1.0096 C.ar    1  UNL1        0.0466
      8 C008       -1.5106   -1.6513    0.5376 C.ar    1  UNL1       -0.0120
      9 C009       -2.4201   -0.6818    0.1236 C.ar    1  UNL1       -0.0518
     10 C010       -1.9601    0.5633   -0.3171 C.ar    1  UNL1       -0.0350
     11 C011       -0.6072    0.8752   -0.3603 C.ar    1  UNL1        0.0760
     12 N012       -0.2490    2.0902   -0.7796 N.ar    1  UNL1       -0.2353
     13 C013        1.0603    2.3564   -0.7849 C.ar    1  UNL1        0.1187
     14 N014        2.0409    1.5184   -0.4328 N.ar    1  UNL1       -0.2203
     15 C015        1.6769    0.2874   -0.0369 C.ar    1  UNL1        0.1300
     16 N016        2.6738   -0.6298    0.3561 N.pl3   1  UNL1       -0.3243
     17 C017        4.0633   -0.2043    0.1865 C.3     1  UNL1        0.0387
     18 C018        4.6729   -0.5055   -1.1451 C.ar    1  UNL1        0.0073
     19 C019        4.5519    0.2499   -2.3465 C.ar    1  UNL1       -0.0192
     20 C020        5.2753   -0.4183   -3.3051 C.ar    1  UNL1        0.0920
     21 O021        5.8362   -1.5363   -2.7794 O.2     1  UNL1       -0.4707
     22 C022        5.4703   -1.5840   -1.4736 C.ar    1  UNL1        0.0963
     23 C023        0.3218   -0.0946    0.0435 C.ar    1  UNL1        0.0407
     24 C024       -0.1450   -1.3552    0.5019 C.ar    1  UNL1       -0.0414
     25 H025       -2.8656   -1.5831    3.3689 H       1  UNL1        0.0294
     26 H026       -4.4117   -1.9105    2.5594 H       1  UNL1        0.0294
     27 H027       -3.8829   -2.9211    3.9163 H       1  UNL1        0.0294
     28 H028       -0.9036   -3.8964   -1.5266 H       1  UNL1        0.0309
     29 H029       -1.0783   -5.5821   -1.0229 H       1  UNL1        0.0309
     30 H030        0.2540   -4.6044   -0.3821 H       1  UNL1        0.0309
     31 H031       -3.4900   -0.8786    0.1317 H       1  UNL1        0.0624
     32 H032       -2.6819    1.3135   -0.6346 H       1  UNL1        0.0639
     33 H033        1.3567    3.3485   -1.1080 H       1  UNL1        0.1048
     34 H034        2.5199   -1.5083   -0.1303 H       1  UNL1        0.1478
     35 H035        4.6430   -0.7488    0.9440 H       1  UNL1        0.0512
     36 H036        4.2102    0.8526    0.4437 H       1  UNL1        0.0512
     37 H037        3.9981    1.1679   -2.4887 H       1  UNL1        0.0652
     38 H038        5.4783   -0.2399   -4.3519 H       1  UNL1        0.1029
     39 H039        5.8486   -2.4309   -0.9174 H       1  UNL1        0.1032
     40 H040        0.5693   -2.0959    0.8560 H       1  UNL1        0.0631
@<TRIPOS>BOND
     1     1     2    1
     2     2     3   ar
     3     3     4   ar
     4     4     5   ar
     5     5     6    1
     6     5     7   ar
     7     7     8    1
     8     8     9   ar
     9     9    10   ar
    10    10    11   ar
    11    11    12   ar
    12    12    13   ar
    13    13    14   ar
    14    14    15   ar
    15    15    16    1
    16    16    17    1
    17    17    18    1
    18    18    19   ar
    19    19    20   ar
    20    20    21   ar
    21    21    22   ar
    22    15    23   ar
    23    23    24   ar
    24     7     2   ar
    25    24     8   ar
    26    23    11   ar
    27    22    18   ar
    28     1    25    1
    29     1    26    1
    30     1    27    1
    31     6    28    1
    32     6    29    1
    33     6    30    1
    34     9    31    1
    35    10    32    1
    36    13    33    1
    37    16    34    1
    38    17    35    1
    39    17    36    1
    40    19    37    1
    41    20    38    1
    42    22    39    1
    43    24    40    1
