@<TRIPOS>MOLECULE
*****
 30 32 0 0 0
SMALL
GASTEIGER

@<TRIPOS>ATOM
      1 O001       -3.2014   -3.1251    1.0953 O.2     1  UNL1        0.0414
      2 N002       -1.9785   -2.9524    1.0018 N.pl3   1  UNL1        0.0796
      3 O003       -1.1223   -3.8063    1.2705 O.co2   1  UNL1       -0.5760
      4 C004       -1.5087   -1.6425    0.5339 C.ar    1  UNL1        0.2739
      5 C005       -2.4285   -0.6809    0.1191 C.ar    1  UNL1        0.0176
      6 C006       -1.9624    0.5631   -0.3185 C.ar    1  UNL1       -0.0292
      7 C007       -0.6072    0.8736   -0.3572 C.ar    1  UNL1        0.0764
      8 N008       -0.2495    2.0864   -0.7794 N.ar    1  UNL1       -0.2353
      9 C009        1.0597    2.3560   -0.7925 C.ar    1  UNL1        0.1187
     10 N010        2.0389    1.5231   -0.4321 N.ar    1  UNL1       -0.2200
     11 C011        1.6759    0.2948   -0.0223 C.ar    1  UNL1        0.1341
     12 N012        2.6790   -0.6389    0.3451 N.pl3   1  UNL1       -0.2977
     13 C013        4.0627   -0.4038    0.5572 C.ar    1  UNL1        0.0509
     14 C014        4.5341    0.7918    1.1161 C.ar    1  UNL1       -0.0391
     15 C015        5.8958    0.9801    1.3758 C.ar    1  UNL1       -0.0599
     16 C016        6.8099   -0.0339    1.1000 C.ar    1  UNL1       -0.0603
     17 C017        6.3630   -1.2426    0.5713 C.ar    1  UNL1       -0.0416
     18 C018        5.0018   -1.4268    0.3128 C.ar    1  UNL1        0.0621
     19 CL019       4.4902   -2.9490   -0.3369 Cl      1  UNL1       -0.0816
     20 C020        0.3231   -0.0962    0.0500 C.ar    1  UNL1        0.0468
     21 C021       -0.1387   -1.3603    0.5049 C.ar    1  UNL1        0.0280
     22 H022       -3.4998   -0.8721    0.1307 H       1  UNL1        0.0686
     23 H023       -2.6814    1.3167   -0.6374 H       1  UNL1        0.0641
     24 H024        1.3550    3.3441   -1.1291 H       1  UNL1        0.1048
     25 H025        2.5565   -1.5005   -0.1844 H       1  UNL1        0.1536
     26 H026        3.8422    1.5927    1.3644 H       1  UNL1        0.0636
     27 H027        6.2376    1.9209    1.8009 H       1  UNL1        0.0618
     28 H028        7.8672    0.1151    1.3044 H       1  UNL1        0.0618
     29 H029        7.0756   -2.0368    0.3661 H       1  UNL1        0.0633
     30 H030        0.5774   -2.1057    0.8473 H       1  UNL1        0.0693
@<TRIPOS>BOND
     1     1     2    2
     2     2     3    1
     3     2     4    1
     4     4     5   ar
     5     5     6   ar
     6     6     7   ar
     7     7     8   ar
     8     8     9   ar
     9     9    10   ar
    10    10    11   ar
    11    11    12    1
    12    12    13    1
    13    13    14   ar
    14    14    15   ar
    15    15    16   ar
    16    16    17   ar
    17    17    18   ar
    18    18    19    1
    19    11    20   ar
    20    20    21   ar
    21    21     4   ar
    22    20     7   ar
    23    18    13   ar
    24     5    22    1
    25     6    23    1
    26     9    24    1
    27    12    25    1
    28    14    26    1
    29    15    27    1
    30    16    28    1
    31    17    29    1
    32    21    30    1
