@<TRIPOS>MOLECULE
*****
 34 36 0 0 0
SMALL
GASTEIGER

@<TRIPOS>ATOM
      1 F001       -1.9188   -2.8472    0.9085 F       1  UNL1       -0.2055
      2 C002       -1.4973   -1.6417    0.5073 C.ar    1  UNL1        0.1242
      3 C003       -2.4203   -0.6824    0.1289 C.ar    1  UNL1       -0.0244
      4 C004       -1.9670    0.5689   -0.2952 C.ar    1  UNL1       -0.0329
      5 C005       -0.6117    0.8801   -0.3438 C.ar    1  UNL1        0.0762
      6 N006       -0.2512    2.0920   -0.7698 N.ar    1  UNL1       -0.2353
      7 C007        1.0612    2.3432   -0.8147 C.ar    1  UNL1        0.1187
      8 N008        2.0419    1.5063   -0.4593 N.ar    1  UNL1       -0.2203
      9 C009        1.6728    0.2942   -0.0130 C.ar    1  UNL1        0.1298
     10 N010        2.6713   -0.6247    0.3838 N.pl3   1  UNL1       -0.3282
     11 C011        4.0585   -0.1629    0.2682 C.3     1  UNL1        0.0144
     12 C012        4.5714   -0.2740   -1.1729 C.3     1  UNL1       -0.0121
     13 C013        6.0179    0.1466   -1.2843 C.ar    1  UNL1       -0.0458
     14 C014        6.3492    1.5033   -1.4114 C.ar    1  UNL1       -0.0571
     15 C015        7.6854    1.8996   -1.4964 C.ar    1  UNL1       -0.0431
     16 C016        8.6952    0.9411   -1.4515 C.ar    1  UNL1        0.0410
     17 CL017      10.3421    1.4289   -1.5548 Cl      1  UNL1       -0.0835
     18 C018        8.3806   -0.4100   -1.3216 C.ar    1  UNL1       -0.0431
     19 C019        7.0442   -0.8069   -1.2363 C.ar    1  UNL1       -0.0571
     20 C020        0.3203   -0.0925    0.0534 C.ar    1  UNL1        0.0428
     21 C021       -0.1384   -1.3652    0.4734 C.ar    1  UNL1       -0.0140
     22 H022       -3.4814   -0.9081    0.1580 H       1  UNL1        0.0647
     23 H023       -2.6908    1.3220   -0.6004 H       1  UNL1        0.0640
     24 H024        1.3595    3.3228   -1.1722 H       1  UNL1        0.1048
     25 H025        2.4652   -0.9145    1.3371 H       1  UNL1        0.1475
     26 H026        4.1847    0.8486    0.6754 H       1  UNL1        0.0465
     27 H027        4.6710   -0.8139    0.9056 H       1  UNL1        0.0465
     28 H028        4.4591   -1.3066   -1.5289 H       1  UNL1        0.0328
     29 H029        3.9712    0.3354   -1.8591 H       1  UNL1        0.0328
     30 H030        5.5651    2.2577   -1.4463 H       1  UNL1        0.0621
     31 H031        7.9298    2.9534   -1.5974 H       1  UNL1        0.0632
     32 H032        9.1683   -1.1576   -1.2867 H       1  UNL1        0.0632
     33 H033        6.8094   -1.8645   -1.1350 H       1  UNL1        0.0621
     34 H034        0.5585   -2.1469    0.7600 H       1  UNL1        0.0654
@<TRIPOS>BOND
     1     1     2    1
     2     2     3   ar
     3     3     4   ar
     4     4     5   ar
     5     5     6   ar
     6     6     7   ar
     7     7     8   ar
     8     8     9   ar
     9     9    10    1
    10    10    11    1
    11    11    12    1
    12    12    13    1
    13    13    14   ar
    14    14    15   ar
    15    15    16   ar
    16    16    17    1
    17    16    18   ar
    18    18    19   ar
    19     9    20   ar
    20    20    21   ar
    21    21     2   ar
    22    20     5   ar
    23    19    13   ar
    24     3    22    1
    25     4    23    1
    26     7    24    1
    27    10    25    1
    28    11    26    1
    29    11    27    1
    30    12    28    1
    31    12    29    1
    32    14    30    1
    33    15    31    1
    34    18    32    1
    35    19    33    1
    36    21    34    1
