@<TRIPOS>MOLECULE
*****
 34 36 0 0 0
SMALL
GASTEIGER

@<TRIPOS>ATOM
      1 C001        8.5420   -0.8731    2.3834 C.3     1  UNL1       -0.0135
      2 S002        7.3548   -2.1761    1.9598 S.3     1  UNL1       -0.1285
      3 C003        6.3187   -1.2918    0.8057 C.ar    1  UNL1        0.0094
      4 C004        6.8463   -0.6675   -0.3253 C.ar    1  UNL1       -0.0482
      5 C005        6.0005   -0.0114   -1.2174 C.ar    1  UNL1       -0.0590
      6 C006        4.6241    0.0257   -0.9807 C.ar    1  UNL1       -0.0404
      7 C007        4.0709   -0.5736    0.1560 C.ar    1  UNL1        0.0334
      8 N008        2.6774   -0.6245    0.3924 N.pl3   1  UNL1       -0.2988
      9 C009        1.6766    0.2948   -0.0227 C.ar    1  UNL1        0.1341
     10 N010        2.0399    1.5120   -0.4642 N.ar    1  UNL1       -0.2200
     11 C011        1.0601    2.3489   -0.8131 C.ar    1  UNL1        0.1187
     12 N012       -0.2507    2.0909   -0.7675 N.ar    1  UNL1       -0.2353
     13 C013       -0.6080    0.8787   -0.3435 C.ar    1  UNL1        0.0764
     14 C014       -1.9637    0.5713   -0.2957 C.ar    1  UNL1       -0.0292
     15 C015       -2.4291   -0.6780    0.1275 C.ar    1  UNL1        0.0176
     16 C016       -1.5072   -1.6503    0.5113 C.ar    1  UNL1        0.2739
     17 N017       -1.9746   -2.9683    0.9570 N.pl3   1  UNL1        0.0796
     18 O018       -1.1314   -3.7479    1.4216 O.2     1  UNL1        0.0414
     19 O019       -3.1829   -3.2175    0.8479 O.co2   1  UNL1       -0.5760
     20 C020       -0.1369   -1.3707    0.4744 C.ar    1  UNL1        0.0280
     21 C021        0.3233   -0.0950    0.0520 C.ar    1  UNL1        0.0468
     22 C022        4.9347   -1.2621    1.0241 C.ar    1  UNL1       -0.0271
     23 H023        9.1872   -1.2290    3.1913 H       1  UNL1        0.0344
     24 H024        8.0210    0.0251    2.7264 H       1  UNL1        0.0344
     25 H025        9.1728   -0.6248    1.5261 H       1  UNL1        0.0344
     26 H026        7.9110   -0.7045   -0.5381 H       1  UNL1        0.0629
     27 H027        6.4076    0.4611   -2.1075 H       1  UNL1        0.0618
     28 H028        3.9868    0.5209   -1.7085 H       1  UNL1        0.0636
     29 H029        2.4776   -0.9298    1.3396 H       1  UNL1        0.1536
     30 H030        1.3561    3.3314   -1.1647 H       1  UNL1        0.1048
     31 H031       -2.6835    1.3297   -0.6014 H       1  UNL1        0.0641
     32 H032       -3.5006   -0.8674    0.1457 H       1  UNL1        0.0686
     33 H033        0.5823   -2.1392    0.7530 H       1  UNL1        0.0693
     34 H034        4.5281   -1.7796    1.8898 H       1  UNL1        0.0647
@<TRIPOS>BOND
     1     1     2    1
     2     2     3    1
     3     3     4   ar
     4     4     5   ar
     5     5     6   ar
     6     6     7   ar
     7     7     8    1
     8     8     9    1
     9     9    10   ar
    10    10    11   ar
    11    11    12   ar
    12    12    13   ar
    13    13    14   ar
    14    14    15   ar
    15    15    16   ar
    16    16    17    1
    17    17    18    2
    18    17    19    1
    19    16    20   ar
    20    20    21   ar
    21     7    22   ar
    22    22     3   ar
    23    21     9   ar
    24    21    13   ar
    25     1    23    1
    26     1    24    1
    27     1    25    1
    28     4    26    1
    29     5    27    1
    30     6    28    1
    31     8    29    1
    32    11    30    1
    33    14    31    1
    34    15    32    1
    35    20    33    1
    36    22    34    1
