@<TRIPOS>MOLECULE
*****
 39 42 0 0 0
SMALL
GASTEIGER

@<TRIPOS>ATOM
      1 C001       11.1605   -1.5673    2.5648 C.3     1  UNL1        0.0119
      2 N002       10.0770   -2.3815    2.0614 N.ar    1  UNL1       -0.3497
      3 C003       10.1676   -3.7204    1.7857 C.ar    1  UNL1        0.0054
      4 C004        8.9403   -4.1397    1.3249 C.ar    1  UNL1       -0.0364
      5 C005        8.0714   -3.0142    1.3210 C.ar    1  UNL1        0.0016
      6 C006        6.7208   -2.8240    0.9606 C.ar    1  UNL1       -0.0313
      7 C007        6.1331   -1.5524    1.0682 C.ar    1  UNL1        0.0355
      8 N008        4.7734   -1.4446    0.7023 N.am    1  UNL1       -0.2692
      9 C009        4.0296   -0.2794    0.5415 C.2     1  UNL1        0.3092
     10 O010        4.4876    0.8534    0.5864 O.2     1  UNL1       -0.2521
     11 N011        2.6962   -0.6057    0.3451 N.am    1  UNL1       -0.2533
     12 C012        1.6767    0.3024   -0.0119 C.ar    1  UNL1        0.1371
     13 N013        2.0394    1.5161   -0.4509 N.ar    1  UNL1       -0.2199
     14 C014        1.0625    2.3510   -0.8005 C.ar    1  UNL1        0.1187
     15 N015       -0.2457    2.0826   -0.7710 N.ar    1  UNL1       -0.2353
     16 C016       -0.6001    0.8678   -0.3466 C.ar    1  UNL1        0.0760
     17 C017       -1.9557    0.5654   -0.3115 C.ar    1  UNL1       -0.0356
     18 C018       -2.4285   -0.6764    0.1164 C.ar    1  UNL1       -0.0597
     19 C019       -1.5283   -1.6485    0.5234 C.ar    1  UNL1       -0.0610
     20 C020       -0.1619   -1.3710    0.4981 C.ar    1  UNL1       -0.0493
     21 C021        0.3269   -0.1057    0.0604 C.ar    1  UNL1        0.0405
     22 C022        6.8921   -0.4861    1.5475 C.ar    1  UNL1       -0.0385
     23 C023        8.2360   -0.6484    1.9117 C.ar    1  UNL1       -0.0359
     24 C024        8.8051   -1.9229    1.7886 C.ar    1  UNL1        0.0489
     25 H025       12.0553   -2.1829    2.6874 H       1  UNL1        0.0456
     26 H026       11.3569   -0.7691    1.8445 H       1  UNL1        0.0456
     27 H027       10.8616   -1.1530    3.5311 H       1  UNL1        0.0456
     28 H028       11.0898   -4.2665    1.9354 H       1  UNL1        0.0809
     29 H029        8.6935   -5.1482    1.0214 H       1  UNL1        0.0639
     30 H030        6.1544   -3.6749    0.5974 H       1  UNL1        0.0643
     31 H031        4.3523   -2.2842    0.3367 H       1  UNL1        0.1564
     32 H032        2.4208   -1.5124    0.6714 H       1  UNL1        0.1578
     33 H033        1.3585    3.3366   -1.1425 H       1  UNL1        0.1048
     34 H034       -2.6696    1.3237   -0.6280 H       1  UNL1        0.0639
     35 H035       -3.4972   -0.8746    0.1303 H       1  UNL1        0.0618
     36 H036       -1.8867   -2.6179    0.8612 H       1  UNL1        0.0618
     37 H037        0.5112   -2.1551    0.8290 H       1  UNL1        0.0625
     38 H038        6.4630    0.5061    1.6592 H       1  UNL1        0.0637
     39 H039        8.8071    0.1987    2.2780 H       1  UNL1        0.0639
@<TRIPOS>BOND
     1     1     2    1
     2     2     3   ar
     3     3     4   ar
     4     4     5   ar
     5     5     6   ar
     6     6     7   ar
     7     7     8    1
     8     8     9   am
     9     9    10    2
    10     9    11   am
    11    11    12    1
    12    12    13   ar
    13    13    14   ar
    14    14    15   ar
    15    15    16   ar
    16    16    17   ar
    17    17    18   ar
    18    18    19   ar
    19    19    20   ar
    20    20    21   ar
    21     7    22   ar
    22    22    23   ar
    23    23    24   ar
    24    24     2   ar
    25    24     5   ar
    26    21    12   ar
    27    21    16   ar
    28     1    25    1
    29     1    26    1
    30     1    27    1
    31     3    28    1
    32     4    29    1
    33     6    30    1
    34     8    31    1
    35    11    32    1
    36    14    33    1
    37    17    34    1
    38    18    35    1
    39    19    36    1
    40    20    37    1
    41    22    38    1
    42    23    39    1
