@<TRIPOS>MOLECULE
*****
 31 34 0 0 0
SMALL
GASTEIGER

@<TRIPOS>ATOM
      1 BR001       7.4375   -2.1671    2.0469 Br      1  UNL1       -0.0502
      2 C002        6.3031   -1.2639    0.8323 C.ar    1  UNL1        0.0196
      3 C003        6.8497   -0.6284   -0.2781 C.ar    1  UNL1       -0.0476
      4 C004        6.0059    0.0172   -1.1775 C.ar    1  UNL1       -0.0590
      5 C005        4.6250    0.0338   -0.9551 C.ar    1  UNL1       -0.0404
      6 C006        4.0646   -0.5691    0.1784 C.ar    1  UNL1        0.0334
      7 N007        2.6696   -0.6314    0.3992 N.pl3   1  UNL1       -0.2988
      8 C008        1.6654    0.2836   -0.0234 C.ar    1  UNL1        0.1339
      9 N009        2.0284    1.5016   -0.4646 N.ar    1  UNL1       -0.2200
     10 C010        1.0476    2.3399   -0.8111 C.ar    1  UNL1        0.1187
     11 N011       -0.2647    2.0900   -0.7631 N.ar    1  UNL1       -0.2352
     12 C012       -0.6291    0.8775   -0.3432 C.ar    1  UNL1        0.0778
     13 C013       -1.9887    0.5904   -0.2984 C.ar    1  UNL1       -0.0144
     14 C014       -2.3518   -0.6527    0.1124 C.ar    1  UNL1        0.0342
     15 C015       -1.4787   -1.6192    0.5067 C.ar    1  UNL1       -0.0088
     16 C016       -0.1306   -1.3923    0.4835 C.ar    1  UNL1       -0.0428
     17 C017        0.3142   -0.1093    0.0531 C.ar    1  UNL1        0.0409
     18 C018       -2.6188   -2.5231    0.7957 C.3     1  UNL1        0.0361
     19 N019       -3.4601   -1.4091    0.3445 N.pl3   1  UNL1       -0.3394
     20 C020        4.9241   -1.2480    1.0558 C.ar    1  UNL1       -0.0265
     21 H021        7.9211   -0.6392   -0.4570 H       1  UNL1        0.0629
     22 H022        6.4159    0.5037   -2.0588 H       1  UNL1        0.0618
     23 H023        3.9891    0.5227   -1.6889 H       1  UNL1        0.0636
     24 H024        2.4553   -0.9315    1.3444 H       1  UNL1        0.1536
     25 H025        1.3460    3.3217   -1.1630 H       1  UNL1        0.1048
     26 H026       -2.7237    1.3274   -0.5967 H       1  UNL1        0.0657
     27 H027        0.5611   -2.1747    0.7730 H       1  UNL1        0.0629
     28 H028       -2.8195   -2.7859    1.8392 H       1  UNL1        0.0511
     29 H029       -2.7502   -3.4031    0.1586 H       1  UNL1        0.0511
     30 H030       -4.0240   -1.0109    1.0926 H       1  UNL1        0.1464
     31 H031        4.5201   -1.7648    1.9218 H       1  UNL1        0.0647
@<TRIPOS>BOND
     1     1     2    1
     2     2     3   ar
     3     3     4   ar
     4     4     5   ar
     5     5     6   ar
     6     6     7    1
     7     7     8    1
     8     8     9   ar
     9     9    10   ar
    10    10    11   ar
    11    11    12   ar
    12    12    13   ar
    13    13    14   ar
    14    14    15   ar
    15    15    16   ar
    16    16    17   ar
    17    15    18    1
    18    18    19    1
    19     6    20   ar
    20    20     2   ar
    21    17     8   ar
    22    17    12   ar
    23    19    14    1
    24     3    21    1
    25     4    22    1
    26     5    23    1
    27     7    24    1
    28    10    25    1
    29    13    26    1
    30    16    27    1
    31    18    28    1
    32    18    29    1
    33    19    30    1
    34    20    31    1
