@<TRIPOS>MOLECULE
*****
 34 36 0 0 0
SMALL
GASTEIGER

@<TRIPOS>ATOM
      1 O001       -1.8540   -5.8112    2.8130 O.3     1  UNL1       -0.3825
      2 C002       -2.7752   -5.3071    1.8566 C.3     1  UNL1        0.1052
      3 C003       -2.3315   -3.9966    1.3835 C.1     1  UNL1       -0.0690
      4 C004       -1.9609   -2.9214    0.9966 C.1     1  UNL1       -0.0640
      5 C005       -1.5084   -1.6461    0.5367 C.ar    1  UNL1        0.0258
      6 C006       -2.4201   -0.6856    0.1168 C.ar    1  UNL1       -0.0443
      7 C007       -1.9611    0.5606   -0.3213 C.ar    1  UNL1       -0.0344
      8 C008       -0.6081    0.8753   -0.3572 C.ar    1  UNL1        0.0761
      9 N009       -0.2488    2.0890   -0.7803 N.ar    1  UNL1       -0.2353
     10 C010        1.0605    2.3570   -0.7918 C.ar    1  UNL1        0.1187
     11 N011        2.0401    1.5237   -0.4315 N.ar    1  UNL1       -0.2200
     12 C012        1.6740    0.2964   -0.0202 C.ar    1  UNL1        0.1339
     13 N013        2.6781   -0.6454    0.3389 N.pl3   1  UNL1       -0.2988
     14 C014        4.0494   -0.4128    0.5887 C.ar    1  UNL1        0.0339
     15 C015        4.5271    0.7975    1.1128 C.ar    1  UNL1       -0.0377
     16 C016        5.8819    0.9720    1.4109 C.ar    1  UNL1       -0.0232
     17 C017        6.7700   -0.0763    1.2107 C.ar    1  UNL1        0.1417
     18 F018        8.0654    0.1081    1.5046 F       1  UNL1       -0.2040
     19 C019        6.3148   -1.2981    0.7267 C.ar    1  UNL1        0.0778
     20 CL020       7.4038   -2.6126    0.4966 Cl      1  UNL1       -0.0805
     21 C021        4.9600   -1.4705    0.4291 C.ar    1  UNL1       -0.0194
     22 C022        0.3206   -0.0926    0.0524 C.ar    1  UNL1        0.0416
     23 C023       -0.1451   -1.3543    0.5084 C.ar    1  UNL1       -0.0338
     24 H024       -1.7579   -5.1260    3.4961 H       1  UNL1        0.2107
     25 H025       -2.8334   -6.0223    1.0312 H       1  UNL1        0.0695
     26 H026       -3.7621   -5.2465    2.3250 H       1  UNL1        0.0695
     27 H027       -3.4882   -0.8892    0.1295 H       1  UNL1        0.0630
     28 H028       -2.6832    1.3091   -0.6420 H       1  UNL1        0.0639
     29 H029        1.3562    3.3450   -1.1282 H       1  UNL1        0.1048
     30 H030        2.5310   -1.4946   -0.1983 H       1  UNL1        0.1536
     31 H031        3.8451    1.6229    1.3027 H       1  UNL1        0.0637
     32 H032        6.2425    1.9170    1.8046 H       1  UNL1        0.0647
     33 H033        4.6181   -2.4363    0.0665 H       1  UNL1        0.0652
     34 H034        0.5607   -2.1052    0.8574 H       1  UNL1        0.0637
@<TRIPOS>BOND
     1     1     2    1
     2     2     3    1
     3     3     4    3
     4     4     5    1
     5     5     6   ar
     6     6     7   ar
     7     7     8   ar
     8     8     9   ar
     9     9    10   ar
    10    10    11   ar
    11    11    12   ar
    12    12    13    1
    13    13    14    1
    14    14    15   ar
    15    15    16   ar
    16    16    17   ar
    17    17    18    1
    18    17    19   ar
    19    19    20    1
    20    19    21   ar
    21    12    22   ar
    22    22    23   ar
    23    23     5   ar
    24    22     8   ar
    25    21    14   ar
    26     1    24    1
    27     2    25    1
    28     2    26    1
    29     6    27    1
    30     7    28    1
    31    10    29    1
    32    13    30    1
    33    15    31    1
    34    16    32    1
    35    21    33    1
    36    23    34    1
