@<TRIPOS>MOLECULE
*****
 33 36 0 0 0
SMALL
GASTEIGER

@<TRIPOS>ATOM
      1 C001       10.6221   -1.0898    0.6309 C.ar    1  UNL1       -0.0617
      2 C002       10.1251   -0.5158   -0.5346 C.ar    1  UNL1       -0.0611
      3 C003        8.7460   -0.3659   -0.7063 C.ar    1  UNL1       -0.0520
      4 C004        7.8355   -0.7859    0.2806 C.ar    1  UNL1        0.0090
      5 C005        6.3915   -0.6001    0.0396 C.ar    1  UNL1        0.1336
      6 N006        5.8848   -0.0423   -1.0431 N.ar    1  UNL1       -0.1396
      7 N007        4.5067    0.0123   -1.0239 N.ar    1  UNL1       -0.1253
      8 C008        3.9866   -0.4918    0.0749 C.ar    1  UNL1        0.1871
      9 N009        2.6745   -0.6188    0.3935 N.pl3   1  UNL1       -0.2767
     10 C010        1.6749    0.2933   -0.0239 C.ar    1  UNL1        0.1353
     11 N011        2.0401    1.5129   -0.4553 N.ar    1  UNL1       -0.2200
     12 C012        1.0631    2.3466   -0.8182 C.ar    1  UNL1        0.1187
     13 N013       -0.2484    2.0926   -0.7710 N.ar    1  UNL1       -0.2353
     14 C014       -0.6080    0.8794   -0.3446 C.ar    1  UNL1        0.0760
     15 C015       -1.9619    0.5706   -0.2905 C.ar    1  UNL1       -0.0356
     16 C016       -2.4202   -0.6793    0.1338 C.ar    1  UNL1       -0.0597
     17 C017       -1.5084   -1.6547    0.5110 C.ar    1  UNL1       -0.0610
     18 C018       -0.1453   -1.3692    0.4679 C.ar    1  UNL1       -0.0493
     19 C019        0.3212   -0.0952    0.0483 C.ar    1  UNL1        0.0405
     20 S020        5.1829   -1.1086    1.1553 S.2     1  UNL1       -0.0304
     21 C021        8.3607   -1.3621    1.4499 C.ar    1  UNL1       -0.0520
     22 C022        9.7415   -1.5125    1.6226 C.ar    1  UNL1       -0.0611
     23 H023       11.6943   -1.2068    0.7663 H       1  UNL1        0.0618
     24 H024       10.8067   -0.1825   -1.3132 H       1  UNL1        0.0618
     25 H025        8.3818    0.0874   -1.6281 H       1  UNL1        0.0624
     26 H026        2.4802   -0.9551    1.3270 H       1  UNL1        0.1555
     27 H027        1.3631    3.3241   -1.1797 H       1  UNL1        0.1048
     28 H028       -2.6841    1.3263   -0.5932 H       1  UNL1        0.0639
     29 H029       -3.4873   -0.8856    0.1583 H       1  UNL1        0.0618
     30 H030       -1.8548   -2.6347    0.8296 H       1  UNL1        0.0618
     31 H031        0.5559   -2.1525    0.7457 H       1  UNL1        0.0625
     32 H032        7.7137   -1.7057    2.2526 H       1  UNL1        0.0624
     33 H033       10.1281   -1.9605    2.5349 H       1  UNL1        0.0618
@<TRIPOS>BOND
     1     1     2   ar
     2     2     3   ar
     3     3     4   ar
     4     4     5    1
     5     5     6   ar
     6     6     7   ar
     7     7     8   ar
     8     8     9    1
     9     9    10    1
    10    10    11   ar
    11    11    12   ar
    12    12    13   ar
    13    13    14   ar
    14    14    15   ar
    15    15    16   ar
    16    16    17   ar
    17    17    18   ar
    18    18    19   ar
    19     8    20   ar
    20     4    21   ar
    21    21    22   ar
    22    22     1   ar
    23    20     5   ar
    24    19    10   ar
    25    19    14   ar
    26     1    23    1
    27     2    24    1
    28     3    25    1
    29     9    26    1
    30    12    27    1
    31    15    28    1
    32    16    29    1
    33    17    30    1
    34    18    31    1
    35    21    32    1
    36    22    33    1
