@<TRIPOS>MOLECULE
*****
 40 42 0 0 0
SMALL
GASTEIGER

@<TRIPOS>ATOM
      1 C001        5.9059    1.2964   -3.1324 C.3     1  UNL1        0.0788
      2 O002        6.7007    0.6307   -2.1580 O.3     1  UNL1       -0.4950
      3 C003        6.0402    0.0839   -1.0918 C.ar    1  UNL1        0.1219
      4 C004        6.8711   -0.4908   -0.1282 C.ar    1  UNL1       -0.0185
      5 C005        6.3281   -1.0987    1.0023 C.ar    1  UNL1       -0.0381
      6 C006        4.9440   -1.1230    1.1733 C.ar    1  UNL1        0.0623
      7 CL007       4.3044   -1.8975    2.5841 Cl      1  UNL1       -0.0816
      8 C008        4.0812   -0.5260    0.2323 C.ar    1  UNL1        0.0544
      9 N009        2.6733   -0.6202    0.3989 N.pl3   1  UNL1       -0.2976
     10 C010        1.6739    0.2968   -0.0227 C.ar    1  UNL1        0.1340
     11 N011        2.0434    1.5116   -0.4672 N.ar    1  UNL1       -0.2200
     12 C012        1.0633    2.3488   -0.8139 C.ar    1  UNL1        0.1187
     13 N013       -0.2473    2.0913   -0.7683 N.ar    1  UNL1       -0.2352
     14 C014       -0.6082    0.8774   -0.3437 C.ar    1  UNL1        0.0797
     15 C015       -1.9625    0.5738   -0.2918 C.ar    1  UNL1        0.0098
     16 C016       -2.4280   -0.6761    0.1322 C.ar    1  UNL1        0.1635
     17 O017       -3.7529   -1.0281    0.2038 O.3     1  UNL1       -0.4914
     18 C018       -4.7177   -0.0536   -0.1680 C.3     1  UNL1        0.0790
     19 C019       -1.5052   -1.6629    0.5120 C.ar    1  UNL1        0.1623
     20 O020       -2.0306   -2.8658    0.9077 O.3     1  UNL1       -0.4914
     21 C021       -1.1266   -3.9086    1.2446 C.3     1  UNL1        0.0790
     22 C022       -0.1413   -1.3688    0.4674 C.ar    1  UNL1       -0.0038
     23 C023        0.3203   -0.0937    0.0481 C.ar    1  UNL1        0.0441
     24 C024        4.6531    0.0504   -0.9143 C.ar    1  UNL1        0.0027
     25 H025        5.2347    0.5947   -3.6383 H       1  UNL1        0.0660
     26 H026        5.3492    2.1288   -2.6891 H       1  UNL1        0.0660
     27 H027        6.5813    1.7122   -3.8863 H       1  UNL1        0.0660
     28 H028        7.9497   -0.4697   -0.2654 H       1  UNL1        0.0654
     29 H029        6.9865   -1.5508    1.7386 H       1  UNL1        0.0634
     30 H030        2.4600   -0.9338    1.3446 H       1  UNL1        0.1536
     31 H031        1.3584    3.3321   -1.1637 H       1  UNL1        0.1048
     32 H032       -2.6519    1.3541   -0.5992 H       1  UNL1        0.0677
     33 H033       -4.6654    0.8235    0.4854 H       1  UNL1        0.0660
     34 H034       -4.6088    0.2281   -1.2204 H       1  UNL1        0.0660
     35 H035       -5.7089   -0.5006   -0.0448 H       1  UNL1        0.0660
     36 H036       -0.5219   -3.6392    2.1167 H       1  UNL1        0.0660
     37 H037       -0.4948   -4.1755    0.3911 H       1  UNL1        0.0660
     38 H038       -1.7172   -4.7908    1.5097 H       1  UNL1        0.0660
     39 H039        0.5902   -2.1215    0.7416 H       1  UNL1        0.0663
     40 H040        3.9922    0.4621   -1.6690 H       1  UNL1        0.0673
@<TRIPOS>BOND
     1     1     2    1
     2     2     3    1
     3     3     4   ar
     4     4     5   ar
     5     5     6   ar
     6     6     7    1
     7     6     8   ar
     8     8     9    1
     9     9    10    1
    10    10    11   ar
    11    11    12   ar
    12    12    13   ar
    13    13    14   ar
    14    14    15   ar
    15    15    16   ar
    16    16    17    1
    17    17    18    1
    18    16    19   ar
    19    19    20    1
    20    20    21    1
    21    19    22   ar
    22    22    23   ar
    23     8    24   ar
    24    24     3   ar
    25    23    10   ar
    26    23    14   ar
    27     1    25    1
    28     1    26    1
    29     1    27    1
    30     4    28    1
    31     5    29    1
    32     9    30    1
    33    12    31    1
    34    15    32    1
    35    18    33    1
    36    18    34    1
    37    18    35    1
    38    21    36    1
    39    21    37    1
    40    21    38    1
    41    22    39    1
    42    24    40    1
