@<TRIPOS>MOLECULE
*****
 41 44 0 0 0
SMALL
GASTEIGER

@<TRIPOS>ATOM
      1 C001       -4.7182   -0.0504   -0.1519 C.3     1  UNL1        0.0790
      2 O002       -3.7525   -1.0251    0.2178 O.3     1  UNL1       -0.4914
      3 C003       -2.4278   -0.6743    0.1386 C.ar    1  UNL1        0.1635
      4 C004       -1.9632    0.5761   -0.2849 C.ar    1  UNL1        0.0098
      5 C005       -0.6087    0.8780   -0.3437 C.ar    1  UNL1        0.0797
      6 N006       -0.2475    2.0916   -0.7682 N.ar    1  UNL1       -0.2352
      7 C007        1.0634    2.3479   -0.8178 C.ar    1  UNL1        0.1187
      8 N008        2.0425    1.5104   -0.4677 N.ar    1  UNL1       -0.2200
      9 C009        1.6737    0.2954   -0.0285 C.ar    1  UNL1        0.1340
     10 N010        2.6726   -0.6178    0.4126 N.pl3   1  UNL1       -0.2972
     11 C011        4.0771   -0.5598    0.1977 C.ar    1  UNL1        0.0585
     12 C012        4.6289    0.0963   -0.9093 C.ar    1  UNL1        0.0493
     13 N013        5.9466    0.1474   -1.2150 N.ar    1  UNL1       -0.2608
     14 C014        6.7746   -0.5167   -0.3863 C.ar    1  UNL1        0.0354
     15 C015        6.3626   -1.2542    0.7223 C.ar    1  UNL1        0.0020
     16 C016        7.2963   -1.9448    1.5164 C.ar    1  UNL1       -0.0525
     17 C017        6.8808   -2.7016    2.6082 C.ar    1  UNL1       -0.0611
     18 C018        5.5291   -2.7795    2.9137 C.ar    1  UNL1       -0.0611
     19 C019        4.5931   -2.0928    2.1330 C.ar    1  UNL1       -0.0522
     20 C020        4.9790   -1.3003    1.0209 C.ar    1  UNL1        0.0062
     21 C021        0.3202   -0.0944    0.0440 C.ar    1  UNL1        0.0441
     22 C022       -0.1399   -1.3705    0.4604 C.ar    1  UNL1       -0.0038
     23 C023       -1.5037   -1.6643    0.5061 C.ar    1  UNL1        0.1623
     24 O024       -2.0264   -2.8680    0.9030 O.3     1  UNL1       -0.4914
     25 C025       -1.1281   -3.9548    1.0773 C.3     1  UNL1        0.0790
     26 H026       -5.7091   -0.4971   -0.0256 H       1  UNL1        0.0660
     27 H027       -4.6122    0.2306   -1.2048 H       1  UNL1        0.0660
     28 H028       -4.6637    0.8270    0.5008 H       1  UNL1        0.0660
     29 H029       -2.6531    1.3581   -0.5868 H       1  UNL1        0.0677
     30 H030        1.3599    3.3294   -1.1720 H       1  UNL1        0.1048
     31 H031        2.4617   -0.8510    1.3759 H       1  UNL1        0.1536
     32 H032        4.0011    0.6177   -1.6256 H       1  UNL1        0.0849
     33 H033        7.8250   -0.4478   -0.6586 H       1  UNL1        0.0836
     34 H034        8.3583   -1.9006    1.2823 H       1  UNL1        0.0624
     35 H035        7.6104   -3.2334    3.2134 H       1  UNL1        0.0618
     36 H036        5.1975   -3.3760    3.7602 H       1  UNL1        0.0618
     37 H037        3.5495   -2.1994    2.4125 H       1  UNL1        0.0624
     38 H038        0.5920   -2.1234    0.7327 H       1  UNL1        0.0663
     39 H039       -0.4666   -3.7824    1.9325 H       1  UNL1        0.0660
     40 H040       -0.5537   -4.1472    0.1650 H       1  UNL1        0.0660
     41 H041       -1.7217   -4.8487    1.2916 H       1  UNL1        0.0660
@<TRIPOS>BOND
     1     1     2    1
     2     2     3    1
     3     3     4   ar
     4     4     5   ar
     5     5     6   ar
     6     6     7   ar
     7     7     8   ar
     8     8     9   ar
     9     9    10    1
    10    10    11    1
    11    11    12   ar
    12    12    13   ar
    13    13    14   ar
    14    14    15   ar
    15    15    16   ar
    16    16    17   ar
    17    17    18   ar
    18    18    19   ar
    19    19    20   ar
    20     9    21   ar
    21    21    22   ar
    22    22    23   ar
    23    23    24    1
    24    24    25    1
    25    23     3   ar
    26    21     5   ar
    27    20    11   ar
    28    20    15   ar
    29     1    26    1
    30     1    27    1
    31     1    28    1
    32     4    29    1
    33     7    30    1
    34    10    31    1
    35    12    32    1
    36    14    33    1
    37    16    34    1
    38    17    35    1
    39    18    36    1
    40    19    37    1
    41    22    38    1
    42    25    39    1
    43    25    40    1
    44    25    41    1
