@<TRIPOS>MOLECULE
*****
 28 30 0 0 0
SMALL
GASTEIGER

@<TRIPOS>ATOM
      1 F001        6.3205    2.1196    1.8894 F       1  UNL1       -0.2054
      2 C002        5.8796    0.9495    1.4077 C.ar    1  UNL1        0.1252
      3 C003        6.7788   -0.0931    1.2274 C.ar    1  UNL1       -0.0263
      4 C004        6.3157   -1.3151    0.7510 C.ar    1  UNL1       -0.0573
      5 C005        4.9586   -1.4743    0.4494 C.ar    1  UNL1       -0.0403
      6 C006        4.0486   -0.4116    0.5936 C.ar    1  UNL1        0.0351
      7 N007        2.6779   -0.6459    0.3386 N.pl3   1  UNL1       -0.2988
      8 C008        1.6741    0.2956   -0.0197 C.ar    1  UNL1        0.1339
      9 N009        2.0388    1.5227   -0.4317 N.ar    1  UNL1       -0.2200
     10 C010        1.0597    2.3569   -0.7902 C.ar    1  UNL1        0.1187
     11 N011       -0.2497    2.0880   -0.7803 N.ar    1  UNL1       -0.2353
     12 C012       -0.6084    0.8744   -0.3575 C.ar    1  UNL1        0.0761
     13 C013       -1.9618    0.5598   -0.3216 C.ar    1  UNL1       -0.0345
     14 C014       -2.4212   -0.6855    0.1167 C.ar    1  UNL1       -0.0457
     15 C015       -1.5054   -1.6395    0.5350 C.ar    1  UNL1        0.0187
     16 BR016      -2.1065   -3.3235    1.1425 Br      1  UNL1       -0.0503
     17 C017       -0.1432   -1.3549    0.5092 C.ar    1  UNL1       -0.0353
     18 C018        0.3209   -0.0936    0.0525 C.ar    1  UNL1        0.0415
     19 C019        4.5280    0.7968    1.1094 C.ar    1  UNL1       -0.0052
     20 H020        7.8263    0.0515    1.4702 H       1  UNL1        0.0646
     21 H021        7.0044   -2.1455    0.6197 H       1  UNL1        0.0619
     22 H022        4.6183   -2.4440    0.0937 H       1  UNL1        0.0636
     23 H023        2.5413   -1.4909   -0.2065 H       1  UNL1        0.1536
     24 H024        1.3558    3.3456   -1.1238 H       1  UNL1        0.1048
     25 H025       -2.6834    1.3092   -0.6419 H       1  UNL1        0.0639
     26 H026       -3.4888   -0.8888    0.1306 H       1  UNL1        0.0629
     27 H027        0.5633   -2.1033    0.8598 H       1  UNL1        0.0636
     28 H028        3.8637    1.6343    1.2938 H       1  UNL1        0.0665
@<TRIPOS>BOND
     1     1     2    1
     2     2     3   ar
     3     3     4   ar
     4     4     5   ar
     5     5     6   ar
     6     6     7    1
     7     7     8    1
     8     8     9   ar
     9     9    10   ar
    10    10    11   ar
    11    11    12   ar
    12    12    13   ar
    13    13    14   ar
    14    14    15   ar
    15    15    16    1
    16    15    17   ar
    17    17    18   ar
    18     6    19   ar
    19    19     2   ar
    20    18     8   ar
    21    18    12   ar
    22     3    20    1
    23     4    21    1
    24     5    22    1
    25     7    23    1
    26    10    24    1
    27    13    25    1
    28    14    26    1
    29    17    27    1
    30    19    28    1
