@<TRIPOS>MOLECULE
*****
 42 45 0 0 0
SMALL
GASTEIGER

@<TRIPOS>ATOM
      1 C001       -4.7110   -0.1011   -0.2859 C.3     1  UNL1        0.0790
      2 O002       -3.7484   -1.0501    0.1521 O.3     1  UNL1       -0.4914
      3 C003       -2.4257   -0.6863    0.1073 C.ar    1  UNL1        0.1635
      4 C004       -1.9610    0.5593   -0.3302 C.ar    1  UNL1        0.0098
      5 C005       -0.6083    0.8737   -0.3563 C.ar    1  UNL1        0.0797
      6 N006       -0.2473    2.0879   -0.7799 N.ar    1  UNL1       -0.2352
      7 C007        1.0616    2.3586   -0.7899 C.ar    1  UNL1        0.1187
      8 N008        2.0409    1.5263   -0.4287 N.ar    1  UNL1       -0.2200
      9 C009        1.6731    0.3017   -0.0132 C.ar    1  UNL1        0.1340
     10 N010        2.6756   -0.6549    0.3220 N.pl3   1  UNL1       -0.2983
     11 C011        4.0549   -0.4323    0.6050 C.ar    1  UNL1        0.0419
     12 C012        4.4675    0.7846    1.1678 C.ar    1  UNL1       -0.0363
     13 C013        5.7974    1.0102    1.4982 C.ar    1  UNL1       -0.0163
     14 C014        6.7305   -0.0021    1.2989 C.ar    1  UNL1        0.1428
     15 O015        8.0450    0.2422    1.6283 O.3     1  UNL1       -0.5046
     16 C016        6.3760   -1.2588    0.7953 C.ar    1  UNL1        0.1140
     17 N017        7.3239   -2.2152    0.6524 N.ar    1  UNL1       -0.2513
     18 C018        6.9719   -3.4295    0.1931 C.ar    1  UNL1        0.0284
     19 C019        5.6822   -3.7653   -0.1427 C.ar    1  UNL1       -0.0429
     20 C020        4.7020   -2.7884   -0.0052 C.ar    1  UNL1       -0.0492
     21 C021        5.0161   -1.4878    0.4613 C.ar    1  UNL1        0.0251
     22 C022        0.3195   -0.0889    0.0571 C.ar    1  UNL1        0.0441
     23 C023       -0.1421   -1.3495    0.5166 C.ar    1  UNL1       -0.0038
     24 C024       -1.5048   -1.6499    0.5463 C.ar    1  UNL1        0.1623
     25 O025       -2.0284   -2.8443    0.9691 O.3     1  UNL1       -0.4914
     26 C026       -1.1520   -3.7637    1.6054 C.3     1  UNL1        0.0790
     27 H027       -4.5654    0.1511   -1.3414 H       1  UNL1        0.0660
     28 H028       -4.6955    0.7954    0.3425 H       1  UNL1        0.0660
     29 H029       -5.7002   -0.5586   -0.1873 H       1  UNL1        0.0660
     30 H030       -2.6497    1.3290   -0.6648 H       1  UNL1        0.0677
     31 H031        1.3563    3.3465   -1.1272 H       1  UNL1        0.1048
     32 H032        2.5514   -1.4373   -0.3094 H       1  UNL1        0.1536
     33 H033        3.7501    1.5789    1.3570 H       1  UNL1        0.0637
     34 H034        6.0835    1.9711    1.9135 H       1  UNL1        0.0655
     35 H035        8.1359    1.1549    1.9401 H       1  UNL1        0.2922
     36 H036        7.7845   -4.1444    0.1063 H       1  UNL1        0.0830
     37 H037        5.4423   -4.7593   -0.5014 H       1  UNL1        0.0633
     38 H038        3.6871   -3.0703   -0.2629 H       1  UNL1        0.0625
     39 H039        0.5872   -2.0760    0.8590 H       1  UNL1        0.0663
     40 H040       -1.7517   -4.6079    1.9591 H       1  UNL1        0.0660
     41 H041       -0.6657   -3.3125    2.4768 H       1  UNL1        0.0660
     42 H042       -0.4134   -4.1541    0.8979 H       1  UNL1        0.0660
@<TRIPOS>BOND
     1     1     2    1
     2     2     3    1
     3     3     4   ar
     4     4     5   ar
     5     5     6   ar
     6     6     7   ar
     7     7     8   ar
     8     8     9   ar
     9     9    10    1
    10    10    11    1
    11    11    12   ar
    12    12    13   ar
    13    13    14   ar
    14    14    15    1
    15    14    16   ar
    16    16    17   ar
    17    17    18   ar
    18    18    19   ar
    19    19    20   ar
    20    20    21   ar
    21     9    22   ar
    22    22    23   ar
    23    23    24   ar
    24    24    25    1
    25    25    26    1
    26    24     3   ar
    27    22     5   ar
    28    21    11   ar
    29    21    16   ar
    30     1    27    1
    31     1    28    1
    32     1    29    1
    33     4    30    1
    34     7    31    1
    35    10    32    1
    36    12    33    1
    37    13    34    1
    38    15    35    1
    39    18    36    1
    40    19    37    1
    41    20    38    1
    42    23    39    1
    43    26    40    1
    44    26    41    1
    45    26    42    1
