@<TRIPOS>MOLECULE
*****
 30 32 0 0 0
SMALL
GASTEIGER

@<TRIPOS>ATOM
      1 O001       -4.2045   -2.0946    0.5195 O.2     1  UNL1        0.0414
      2 N002       -3.8520   -0.9688    0.1404 N.pl3   1  UNL1        0.0797
      3 O003       -4.6270   -0.0736   -0.2221 O.co2   1  UNL1       -0.5760
      4 C004       -2.4136   -0.6797    0.1169 C.ar    1  UNL1        0.2752
      5 C005       -1.5051   -1.6508    0.5393 C.ar    1  UNL1        0.0164
      6 C006       -0.1430   -1.3566    0.5079 C.ar    1  UNL1       -0.0429
      7 C007        0.3204   -0.0948    0.0514 C.ar    1  UNL1        0.0409
      8 C008        1.6740    0.2956   -0.0193 C.ar    1  UNL1        0.1339
      9 N009        2.6779   -0.6452    0.3396 N.pl3   1  UNL1       -0.2988
     10 C010        4.0468   -0.4060    0.6034 C.ar    1  UNL1        0.0334
     11 C011        4.9635   -1.4590    0.4462 C.ar    1  UNL1       -0.0404
     12 C012        6.3170   -1.2929    0.7547 C.ar    1  UNL1       -0.0590
     13 C013        6.7723   -0.0746    1.2511 C.ar    1  UNL1       -0.0476
     14 C014        5.8671    0.9645    1.4471 C.ar    1  UNL1        0.0196
     15 BR015       6.4745    2.6121    2.1506 Br      1  UNL1       -0.0502
     16 C016        4.5146    0.7996    1.1400 C.ar    1  UNL1       -0.0265
     17 N017        2.0374    1.5227   -0.4311 N.ar    1  UNL1       -0.2200
     18 C018        1.0588    2.3567   -0.7903 C.ar    1  UNL1        0.1187
     19 N019       -0.2506    2.0859   -0.7801 N.ar    1  UNL1       -0.2351
     20 C020       -0.6105    0.8738   -0.3581 C.ar    1  UNL1        0.0824
     21 C021       -1.9642    0.5705   -0.3252 C.ar    1  UNL1        0.0417
     22 H022       -1.8350   -2.6244    0.8969 H       1  UNL1        0.0685
     23 H023        0.5604   -2.1095    0.8594 H       1  UNL1        0.0627
     24 H024        2.5513   -1.4848   -0.2162 H       1  UNL1        0.1536
     25 H025        4.6328   -2.4256    0.0743 H       1  UNL1        0.0636
     26 H026        7.0125   -2.1160    0.6124 H       1  UNL1        0.0618
     27 H027        7.8245    0.0514    1.4911 H       1  UNL1        0.0629
     28 H028        3.8247    1.6172    1.3278 H       1  UNL1        0.0647
     29 H029        1.3544    3.3456   -1.1243 H       1  UNL1        0.1048
     30 H030       -2.6702    1.3337   -0.6497 H       1  UNL1        0.0707
@<TRIPOS>BOND
     1     1     2    2
     2     2     3    1
     3     2     4    1
     4     4     5   ar
     5     5     6   ar
     6     6     7   ar
     7     7     8   ar
     8     8     9    1
     9     9    10    1
    10    10    11   ar
    11    11    12   ar
    12    12    13   ar
    13    13    14   ar
    14    14    15    1
    15    14    16   ar
    16     8    17   ar
    17    17    18   ar
    18    18    19   ar
    19    19    20   ar
    20    20    21   ar
    21    21     4   ar
    22    20     7   ar
    23    16    10   ar
    24     5    22    1
    25     6    23    1
    26     9    24    1
    27    11    25    1
    28    12    26    1
    29    13    27    1
    30    16    28    1
    31    18    29    1
    32    21    30    1
