@<TRIPOS>MOLECULE
*****
 37 39 0 0 0
SMALL
GASTEIGER

@<TRIPOS>ATOM
      1 O001       -0.7442   -5.8299    3.1576 O.3     1  UNL1       -0.3941
      2 C002       -1.5090   -6.2648    2.0353 C.3     1  UNL1        0.0550
      3 C003       -2.7151   -5.3600    1.7856 C.3     1  UNL1        0.0327
      4 C004       -2.3059   -4.0262    1.3201 C.1     1  UNL1       -0.0947
      5 C005       -1.9542   -2.9401    0.9468 C.1     1  UNL1       -0.0662
      6 C006       -1.5069   -1.6542    0.5129 C.ar    1  UNL1        0.0257
      7 C007       -2.4211   -0.6803    0.1323 C.ar    1  UNL1       -0.0443
      8 C008       -1.9629    0.5704   -0.2939 C.ar    1  UNL1       -0.0344
      9 C009       -0.6089    0.8795   -0.3455 C.ar    1  UNL1        0.0761
     10 N010       -0.2496    2.0931   -0.7694 N.ar    1  UNL1       -0.2353
     11 C011        1.0615    2.3491   -0.8127 C.ar    1  UNL1        0.1187
     12 N012        2.0419    1.5122   -0.4632 N.ar    1  UNL1       -0.2200
     13 C013        1.6745    0.2953   -0.0226 C.ar    1  UNL1        0.1339
     14 N014        2.6752   -0.6253    0.3955 N.pl3   1  UNL1       -0.2988
     15 C015        4.0712   -0.5618    0.1873 C.ar    1  UNL1        0.0339
     16 C016        4.6411    0.0591   -0.9339 C.ar    1  UNL1       -0.0377
     17 C017        6.0235    0.0474   -1.1429 C.ar    1  UNL1       -0.0232
     18 C018        6.8490   -0.6109   -0.2412 C.ar    1  UNL1        0.1417
     19 F019        8.1723   -0.6139   -0.4587 F       1  UNL1       -0.2040
     20 C020        6.3050   -1.2655    0.8587 C.ar    1  UNL1        0.0778
     21 CL021       7.3179   -2.1043    1.9710 Cl      1  UNL1       -0.0805
     22 C022        4.9227   -1.2524    1.0658 C.ar    1  UNL1       -0.0194
     23 C023        0.3210   -0.0939    0.0482 C.ar    1  UNL1        0.0416
     24 C024       -0.1430   -1.3678    0.4695 C.ar    1  UNL1       -0.0338
     25 H025       -1.3454   -5.7552    3.9180 H       1  UNL1        0.2094
     26 H026       -1.8434   -7.2871    2.2396 H       1  UNL1        0.0566
     27 H027       -0.8448   -6.2937    1.1651 H       1  UNL1        0.0566
     28 H028       -3.3626   -5.8222    1.0324 H       1  UNL1        0.0420
     29 H029       -3.2979   -5.2544    2.7076 H       1  UNL1        0.0420
     30 H030       -3.4895   -0.8810    0.1573 H       1  UNL1        0.0630
     31 H031       -2.6860    1.3253   -0.5963 H       1  UNL1        0.0639
     32 H032        1.3579    3.3318   -1.1633 H       1  UNL1        0.1048
     33 H033        2.4460   -0.9524    1.3292 H       1  UNL1        0.1536
     34 H034        4.0113    0.5572   -1.6673 H       1  UNL1        0.0637
     35 H035        6.4545    0.5415   -2.0078 H       1  UNL1        0.0647
     36 H036        4.5120   -1.7821    1.9214 H       1  UNL1        0.0652
     37 H037        0.5649   -2.1447    0.7514 H       1  UNL1        0.0637
@<TRIPOS>BOND
     1     1     2    1
     2     2     3    1
     3     3     4    1
     4     4     5    3
     5     5     6    1
     6     6     7   ar
     7     7     8   ar
     8     8     9   ar
     9     9    10   ar
    10    10    11   ar
    11    11    12   ar
    12    12    13   ar
    13    13    14    1
    14    14    15    1
    15    15    16   ar
    16    16    17   ar
    17    17    18   ar
    18    18    19    1
    19    18    20   ar
    20    20    21    1
    21    20    22   ar
    22    13    23   ar
    23    23    24   ar
    24    24     6   ar
    25    23     9   ar
    26    22    15   ar
    27     1    25    1
    28     2    26    1
    29     2    27    1
    30     3    28    1
    31     3    29    1
    32     7    30    1
    33     8    31    1
    34    11    32    1
    35    14    33    1
    36    16    34    1
    37    17    35    1
    38    22    36    1
    39    24    37    1
