@<TRIPOS>MOLECULE
*****
 49 51 0 0 0
SMALL
GASTEIGER

@<TRIPOS>ATOM
      1 C001       12.9205    2.4494    0.4041 C.3     1  UNL1       -0.0652
      2 C002       11.4658    2.6592    0.7938 C.3     1  UNL1       -0.0528
      3 C003       10.6349    3.3473   -0.2937 C.3     1  UNL1       -0.0189
      4 C004       10.5223    2.5595   -1.6008 C.3     1  UNL1        0.0896
      5 O005       10.0723    1.2239   -1.3823 O.3     1  UNL1       -0.4920
      6 C006        8.7300    0.9738   -1.3409 C.ar    1  UNL1        0.1205
      7 C007        8.3994   -0.3757   -1.1933 C.ar    1  UNL1       -0.0197
      8 C008        7.0653   -0.7848   -1.1315 C.ar    1  UNL1       -0.0551
      9 C009        6.0363    0.1575   -1.2182 C.ar    1  UNL1       -0.0457
     10 C010        4.5906   -0.2672   -1.1291 C.3     1  UNL1       -0.0121
     11 C011        4.0549   -0.1504    0.3030 C.3     1  UNL1        0.0144
     12 N012        2.6681   -0.6177    0.3999 N.pl3   1  UNL1       -0.3282
     13 C013        1.6711    0.2984   -0.0109 C.ar    1  UNL1        0.1297
     14 N014        2.0441    1.5079   -0.4625 N.ar    1  UNL1       -0.2203
     15 C015        1.0648    2.3428   -0.8249 C.ar    1  UNL1        0.1187
     16 N016       -0.2477    2.0939   -0.7799 N.ar    1  UNL1       -0.2353
     17 C017       -0.6087    0.8826   -0.3479 C.ar    1  UNL1        0.0761
     18 C018       -1.9603    0.5766   -0.2769 C.ar    1  UNL1       -0.0338
     19 C019       -2.4129   -0.6755    0.1535 C.ar    1  UNL1       -0.0390
     20 C020       -1.5065   -1.6781    0.4790 C.ar    1  UNL1        0.0253
     21 N021       -1.9506   -2.8905    1.0126 N.pl3   1  UNL1       -0.3579
     22 C022       -0.1481   -1.3631    0.4722 C.ar    1  UNL1       -0.0286
     23 C023        0.3177   -0.0896    0.0493 C.ar    1  UNL1        0.0418
     24 C024        6.3683    1.5105   -1.3590 C.ar    1  UNL1       -0.0551
     25 C025        7.7065    1.9161   -1.4211 C.ar    1  UNL1       -0.0197
     26 H026       13.0157    1.7367   -0.4204 H       1  UNL1        0.0230
     27 H027       13.4829    2.0490    1.2538 H       1  UNL1        0.0230
     28 H028       13.3871    3.3927    0.1034 H       1  UNL1        0.0230
     29 H029       11.4334    3.2801    1.6973 H       1  UNL1        0.0264
     30 H030       11.0173    1.6956    1.0613 H       1  UNL1        0.0264
     31 H031       11.0559    4.3366   -0.5087 H       1  UNL1        0.0298
     32 H032        9.6327    3.5140    0.1171 H       1  UNL1        0.0298
     33 H033       11.5142    2.4812   -2.0599 H       1  UNL1        0.0696
     34 H034        9.9088    3.0865   -2.3406 H       1  UNL1        0.0696
     35 H035        9.1916   -1.1176   -1.1268 H       1  UNL1        0.0654
     36 H036        6.8392   -1.8423   -1.0167 H       1  UNL1        0.0621
     37 H037        4.4880   -1.3020   -1.4815 H       1  UNL1        0.0328
     38 H038        3.9989    0.3364   -1.8276 H       1  UNL1        0.0328
     39 H039        4.1709    0.8637    0.7067 H       1  UNL1        0.0465
     40 H040        4.6598   -0.7954    0.9536 H       1  UNL1        0.0465
     41 H041        2.4476   -0.8994    1.3527 H       1  UNL1        0.1475
     42 H042        1.3646    3.3198   -1.1877 H       1  UNL1        0.1048
     43 H043       -2.6872    1.3365   -0.5550 H       1  UNL1        0.0639
     44 H044       -3.4825   -0.8549    0.2211 H       1  UNL1        0.0637
     45 H045       -2.8815   -3.1601    0.7086 H       1  UNL1        0.1423
     46 H046       -1.2847   -3.6521    0.9212 H       1  UNL1        0.1423
     47 H047        0.5696   -2.1185    0.7821 H       1  UNL1        0.0644
     48 H048        5.5820    2.2609   -1.4205 H       1  UNL1        0.0621
     49 H049        7.9071    2.9762   -1.5259 H       1  UNL1        0.0654
@<TRIPOS>BOND
     1     1     2    1
     2     2     3    1
     3     3     4    1
     4     4     5    1
     5     5     6    1
     6     6     7   ar
     7     7     8   ar
     8     8     9   ar
     9     9    10    1
    10    10    11    1
    11    11    12    1
    12    12    13    1
    13    13    14   ar
    14    14    15   ar
    15    15    16   ar
    16    16    17   ar
    17    17    18   ar
    18    18    19   ar
    19    19    20   ar
    20    20    21    1
    21    20    22   ar
    22    22    23   ar
    23     9    24   ar
    24    24    25   ar
    25    25     6   ar
    26    23    13   ar
    27    23    17   ar
    28     1    26    1
    29     1    27    1
    30     1    28    1
    31     2    29    1
    32     2    30    1
    33     3    31    1
    34     3    32    1
    35     4    33    1
    36     4    34    1
    37     7    35    1
    38     8    36    1
    39    10    37    1
    40    10    38    1
    41    11    39    1
    42    11    40    1
    43    12    41    1
    44    15    42    1
    45    18    43    1
    46    19    44    1
    47    21    45    1
    48    21    46    1
    49    22    47    1
    50    24    48    1
    51    25    49    1
