@<TRIPOS>MOLECULE
*****
 38 40 0 0 0
SMALL
GASTEIGER

@<TRIPOS>ATOM
      1 C001       -2.5643   -6.2230    0.5192 C.1     1  UNL1       -0.1158
      2 C002       -2.7241   -5.0338    0.4589 C.1     1  UNL1       -0.0648
      3 C003       -2.9204   -3.5768    0.3802 C.3     1  UNL1        0.1498
      4 O004       -1.7727   -2.9320    0.9350 O.3     1  UNL1       -0.4759
      5 C005       -1.5075   -1.6620    0.4959 C.ar    1  UNL1        0.1641
      6 C006       -0.1427   -1.3609    0.4627 C.ar    1  UNL1       -0.0038
      7 C007        0.3240   -0.0919    0.0470 C.ar    1  UNL1        0.0441
      8 C008        1.6778    0.2974   -0.0201 C.ar    1  UNL1        0.1340
      9 N009        2.6774   -0.6205    0.4037 N.pl3   1  UNL1       -0.2988
     10 C010        4.0760   -0.5465    0.2126 C.ar    1  UNL1        0.0338
     11 C011        4.9210   -1.2246    1.1069 C.ar    1  UNL1       -0.0404
     12 C012        6.3078   -1.2312    0.9297 C.ar    1  UNL1       -0.0586
     13 C013        6.8707   -0.5777   -0.1629 C.ar    1  UNL1       -0.0433
     14 C014        6.0416    0.0660   -1.0771 C.ar    1  UNL1        0.0427
     15 CL015       6.7332    0.8477   -2.4468 Cl      1  UNL1       -0.0835
     16 C016        4.6567    0.0730   -0.9004 C.ar    1  UNL1       -0.0222
     17 N017        2.0435    1.5133   -0.4632 N.ar    1  UNL1       -0.2200
     18 C018        1.0634    2.3466   -0.8189 C.ar    1  UNL1        0.1187
     19 N019       -0.2478    2.0882   -0.7730 N.ar    1  UNL1       -0.2352
     20 C020       -0.6063    0.8750   -0.3453 C.ar    1  UNL1        0.0797
     21 C021       -1.9625    0.5702   -0.2834 C.ar    1  UNL1        0.0098
     22 C022       -2.4377   -0.6773    0.1457 C.ar    1  UNL1        0.1636
     23 O023       -3.7664   -0.9861    0.2610 O.3     1  UNL1       -0.4914
     24 C024       -4.7171    0.0356   -0.0147 C.3     1  UNL1        0.0790
     25 H025       -2.4197   -7.2773    0.5731 H       1  UNL1        0.1229
     26 H026       -3.0670   -3.2993   -0.6709 H       1  UNL1        0.0837
     27 H027       -3.8048   -3.3091    0.9676 H       1  UNL1        0.0837
     28 H028        0.5620   -2.1422    0.7418 H       1  UNL1        0.0663
     29 H029        2.4444   -0.9516    1.3346 H       1  UNL1        0.1536
     30 H030        4.5052   -1.7561    1.9601 H       1  UNL1        0.0636
     31 H031        6.9447   -1.7505    1.6409 H       1  UNL1        0.0619
     32 H032        7.9479   -0.5840   -0.3037 H       1  UNL1        0.0632
     33 H033        4.0328    0.5591   -1.6444 H       1  UNL1        0.0651
     34 H034        1.3592    3.3276   -1.1750 H       1  UNL1        0.1048
     35 H035       -2.6473    1.3592   -0.5820 H       1  UNL1        0.0677
     36 H036       -4.5870    0.8888    0.6593 H       1  UNL1        0.0660
     37 H037       -5.7136   -0.3799    0.1636 H       1  UNL1        0.0660
     38 H038       -4.6690    0.3439   -1.0639 H       1  UNL1        0.0660
@<TRIPOS>BOND
     1     1     2    3
     2     2     3    1
     3     3     4    1
     4     4     5    1
     5     5     6   ar
     6     6     7   ar
     7     7     8   ar
     8     8     9    1
     9     9    10    1
    10    10    11   ar
    11    11    12   ar
    12    12    13   ar
    13    13    14   ar
    14    14    15    1
    15    14    16   ar
    16     8    17   ar
    17    17    18   ar
    18    18    19   ar
    19    19    20   ar
    20    20    21   ar
    21    21    22   ar
    22    22    23    1
    23    23    24    1
    24    22     5   ar
    25    20     7   ar
    26    16    10   ar
    27     1    25    1
    28     3    26    1
    29     3    27    1
    30     6    28    1
    31     9    29    1
    32    11    30    1
    33    12    31    1
    34    13    32    1
    35    16    33    1
    36    18    34    1
    37    21    35    1
    38    24    36    1
    39    24    37    1
    40    24    38    1
