@<TRIPOS>MOLECULE
*****
 46 48 0 0 0
SMALL
GASTEIGER

@<TRIPOS>ATOM
      1 C001       11.5458   -0.0280   -2.5836 C.3     1  UNL1       -0.0281
      2 C002       11.1339    0.5574   -1.2359 C.3     1  UNL1        0.0946
      3 C003       12.2687    1.4087   -0.6696 C.3     1  UNL1       -0.0281
      4 O004       10.0122    1.4293   -1.4047 O.3     1  UNL1       -0.4894
      5 C005        8.7484    0.9152   -1.3331 C.ar    1  UNL1        0.1209
      6 C006        8.4037   -0.4318   -1.2355 C.ar    1  UNL1       -0.0197
      7 C007        7.0581   -0.8140   -1.1744 C.ar    1  UNL1       -0.0551
      8 C008        6.0404    0.1459   -1.2169 C.ar    1  UNL1       -0.0457
      9 C009        4.5895   -0.2618   -1.1302 C.3     1  UNL1       -0.0121
     10 C010        4.0548   -0.1491    0.3027 C.3     1  UNL1        0.0144
     11 N011        2.6683   -0.6176    0.4001 N.pl3   1  UNL1       -0.3282
     12 C012        1.6710    0.2983   -0.0111 C.ar    1  UNL1        0.1297
     13 N013        2.0439    1.5078   -0.4624 N.ar    1  UNL1       -0.2203
     14 C014        1.0648    2.3429   -0.8249 C.ar    1  UNL1        0.1187
     15 N015       -0.2477    2.0938   -0.7800 N.ar    1  UNL1       -0.2353
     16 C016       -0.6087    0.8826   -0.3479 C.ar    1  UNL1        0.0761
     17 C017       -1.9603    0.5767   -0.2768 C.ar    1  UNL1       -0.0338
     18 C018       -2.4128   -0.6755    0.1537 C.ar    1  UNL1       -0.0390
     19 C019       -1.5065   -1.6781    0.4790 C.ar    1  UNL1        0.0253
     20 N020       -1.9506   -2.8906    1.0125 N.pl3   1  UNL1       -0.3579
     21 C021       -0.1481   -1.3632    0.4721 C.ar    1  UNL1       -0.0286
     22 C022        0.3177   -0.0897    0.0492 C.ar    1  UNL1        0.0418
     23 C023        6.3895    1.4965   -1.3172 C.ar    1  UNL1       -0.0551
     24 C024        7.7328    1.8734   -1.3775 C.ar    1  UNL1       -0.0197
     25 H025       11.7556    0.7676   -3.3074 H       1  UNL1        0.0265
     26 H026       12.4370   -0.6557   -2.4859 H       1  UNL1        0.0265
     27 H027       10.7441   -0.6358   -3.0142 H       1  UNL1        0.0265
     28 H028       10.9288   -0.2340   -0.5061 H       1  UNL1        0.0727
     29 H029       13.1737    0.8135   -0.5143 H       1  UNL1        0.0265
     30 H030       11.9719    1.8482    0.2890 H       1  UNL1        0.0265
     31 H031       12.5068    2.2440   -1.3377 H       1  UNL1        0.0265
     32 H032        9.1517   -1.2161   -1.2140 H       1  UNL1        0.0654
     33 H033        6.8117   -1.8710   -1.0982 H       1  UNL1        0.0621
     34 H034        4.4737   -1.2927   -1.4900 H       1  UNL1        0.0328
     35 H035        4.0057    0.3545   -1.8244 H       1  UNL1        0.0328
     36 H036        4.1709    0.8639    0.7092 H       1  UNL1        0.0465
     37 H037        4.6605   -0.7958    0.9508 H       1  UNL1        0.0465
     38 H038        2.4479   -0.8968    1.3536 H       1  UNL1        0.1475
     39 H039        1.3649    3.3199   -1.1877 H       1  UNL1        0.1048
     40 H040       -2.6871    1.3367   -0.5549 H       1  UNL1        0.0639
     41 H041       -3.4825   -0.8547    0.2213 H       1  UNL1        0.0637
     42 H042       -1.2851   -3.6522    0.9205 H       1  UNL1        0.1423
     43 H043       -2.8818   -3.1596    0.7088 H       1  UNL1        0.1423
     44 H044        0.5697   -2.1185    0.7821 H       1  UNL1        0.0644
     45 H045        5.6183    2.2634   -1.3508 H       1  UNL1        0.0621
     46 H046        7.9911    2.9265   -1.4589 H       1  UNL1        0.0654
@<TRIPOS>BOND
     1     1     2    1
     2     2     3    1
     3     2     4    1
     4     4     5    1
     5     5     6   ar
     6     6     7   ar
     7     7     8   ar
     8     8     9    1
     9     9    10    1
    10    10    11    1
    11    11    12    1
    12    12    13   ar
    13    13    14   ar
    14    14    15   ar
    15    15    16   ar
    16    16    17   ar
    17    17    18   ar
    18    18    19   ar
    19    19    20    1
    20    19    21   ar
    21    21    22   ar
    22     8    23   ar
    23    23    24   ar
    24    24     5   ar
    25    22    12   ar
    26    22    16   ar
    27     1    25    1
    28     1    26    1
    29     1    27    1
    30     2    28    1
    31     3    29    1
    32     3    30    1
    33     3    31    1
    34     6    32    1
    35     7    33    1
    36     9    34    1
    37     9    35    1
    38    10    36    1
    39    10    37    1
    40    11    38    1
    41    14    39    1
    42    17    40    1
    43    18    41    1
    44    20    42    1
    45    20    43    1
    46    21    44    1
    47    23    45    1
    48    24    46    1
