@<TRIPOS>MOLECULE
*****
 30 32 0 0 0
SMALL
GASTEIGER

@<TRIPOS>ATOM
      1 N001       -3.7918   -0.9978    0.0551 N.pl3   1  UNL1       -0.3579
      2 C002       -2.4340   -0.6753    0.1509 C.ar    1  UNL1        0.0266
      3 C003       -1.5076   -1.6448    0.5191 C.ar    1  UNL1       -0.0403
      4 C004       -0.1434   -1.3549    0.4945 C.ar    1  UNL1       -0.0475
      5 C005        0.3227   -0.0920    0.0527 C.ar    1  UNL1        0.0405
      6 C006        1.6764    0.2994   -0.0151 C.ar    1  UNL1        0.1339
      7 N007        2.6801   -0.6431    0.3434 N.pl3   1  UNL1       -0.2988
      8 C008        4.0519   -0.4097    0.5934 C.ar    1  UNL1        0.0334
      9 C009        4.9621   -1.4675    0.4311 C.ar    1  UNL1       -0.0404
     10 C010        6.3193   -1.3069    0.7258 C.ar    1  UNL1       -0.0590
     11 C011        6.7852   -0.0892    1.2135 C.ar    1  UNL1       -0.0476
     12 C012        5.8867    0.9550    1.4146 C.ar    1  UNL1        0.0196
     13 BR013       6.5091    2.6020    2.1065 Br      1  UNL1       -0.0502
     14 C014        4.5307    0.7956    1.1211 C.ar    1  UNL1       -0.0265
     15 N015        2.0417    1.5270   -0.4257 N.ar    1  UNL1       -0.2200
     16 C016        1.0617    2.3564   -0.7920 C.ar    1  UNL1        0.1187
     17 N017       -0.2471    2.0846   -0.7875 N.ar    1  UNL1       -0.2352
     18 C018       -0.6074    0.8704   -0.3605 C.ar    1  UNL1        0.0777
     19 C019       -1.9613    0.5505   -0.3288 C.ar    1  UNL1       -0.0149
     20 H020       -4.4118   -0.1931    0.0765 H       1  UNL1        0.1423
     21 H021       -4.0929   -1.7309    0.6898 H       1  UNL1        0.1423
     22 H022       -1.8378   -2.6313    0.8339 H       1  UNL1        0.0636
     23 H023        0.5549   -2.1191    0.8268 H       1  UNL1        0.0626
     24 H024        2.5405   -1.4846   -0.2063 H       1  UNL1        0.1536
     25 H025        4.6222   -2.4334    0.0655 H       1  UNL1        0.0636
     26 H026        7.0092   -2.1340    0.5794 H       1  UNL1        0.0618
     27 H027        7.8401    0.0327    1.4428 H       1  UNL1        0.0629
     28 H028        3.8456    1.6164    1.3123 H       1  UNL1        0.0647
     29 H029        1.3565    3.3445   -1.1281 H       1  UNL1        0.1048
     30 H030       -2.6695    1.2949   -0.6860 H       1  UNL1        0.0657
@<TRIPOS>BOND
     1     1     2    1
     2     2     3   ar
     3     3     4   ar
     4     4     5   ar
     5     5     6   ar
     6     6     7    1
     7     7     8    1
     8     8     9   ar
     9     9    10   ar
    10    10    11   ar
    11    11    12   ar
    12    12    13    1
    13    12    14   ar
    14     6    15   ar
    15    15    16   ar
    16    16    17   ar
    17    17    18   ar
    18    18    19   ar
    19    19     2   ar
    20    18     5   ar
    21    14     8   ar
    22     1    20    1
    23     1    21    1
    24     3    22    1
    25     4    23    1
    26     7    24    1
    27     9    25    1
    28    10    26    1
    29    11    27    1
    30    14    28    1
    31    16    29    1
    32    19    30    1
