@<TRIPOS>MOLECULE
*****
 43 46 0 0 0
SMALL
GASTEIGER

@<TRIPOS>ATOM
      1 C001       -4.7166   -0.0574   -0.1785 C.3     1  UNL1        0.0790
      2 O002       -3.7524   -1.0306    0.1979 O.3     1  UNL1       -0.4914
      3 C003       -2.4276   -0.6769    0.1295 C.ar    1  UNL1        0.1635
      4 C004       -1.9626    0.5739   -0.2925 C.ar    1  UNL1        0.0098
      5 C005       -0.6084    0.8789   -0.3417 C.ar    1  UNL1        0.0797
      6 N006       -0.2486    2.0916   -0.7701 N.ar    1  UNL1       -0.2352
      7 C007        1.0628    2.3432   -0.8200 C.ar    1  UNL1        0.1187
      8 N008        2.0430    1.5084   -0.4628 N.ar    1  UNL1       -0.2203
      9 C009        1.6752    0.2993   -0.0076 C.ar    1  UNL1        0.1302
     10 N010        2.6722   -0.6200    0.3846 N.pl3   1  UNL1       -0.3217
     11 C011        4.0548   -0.1462    0.3406 C.3     1  UNL1        0.0478
     12 C012        5.0002   -1.3596    0.1785 C.3     1  UNL1       -0.0264
     13 C013        5.3190   -1.8755    1.5892 C.3     1  UNL1       -0.0254
     14 C014        5.2078   -0.6188    2.3924 C.ar    1  UNL1       -0.0424
     15 C015        5.6733   -0.3843    3.6752 C.ar    1  UNL1       -0.0583
     16 C016        5.4239    0.8626    4.2524 C.ar    1  UNL1       -0.0615
     17 C017        4.7096    1.8464    3.5509 C.ar    1  UNL1       -0.0614
     18 C018        4.2343    1.5964    2.2622 C.ar    1  UNL1       -0.0565
     19 C019        4.4916    0.3597    1.6908 C.ar    1  UNL1       -0.0241
     20 C020        0.3209   -0.0908    0.0534 C.ar    1  UNL1        0.0438
     21 C021       -0.1408   -1.3664    0.4689 C.ar    1  UNL1       -0.0038
     22 C022       -1.5043   -1.6631    0.5093 C.ar    1  UNL1        0.1623
     23 O023       -2.0287   -2.8676    0.9021 O.3     1  UNL1       -0.4914
     24 C024       -1.1218   -3.9129    1.2220 C.3     1  UNL1        0.0790
     25 H025       -4.6679    0.8203    0.4743 H       1  UNL1        0.0660
     26 H026       -5.7079   -0.5053   -0.0589 H       1  UNL1        0.0660
     27 H027       -4.6040    0.2235   -1.2308 H       1  UNL1        0.0660
     28 H028       -2.6518    1.3533   -0.6020 H       1  UNL1        0.0677
     29 H029        1.3605    3.3207   -1.1834 H       1  UNL1        0.1048
     30 H030        2.4453   -0.9564    1.3177 H       1  UNL1        0.1481
     31 H031        4.2608    0.5638   -0.4683 H       1  UNL1        0.0548
     32 H032        4.5914   -2.1472   -0.4637 H       1  UNL1        0.0289
     33 H033        5.9362   -1.0180   -0.2866 H       1  UNL1        0.0289
     34 H034        4.5731   -2.6040    1.9235 H       1  UNL1        0.0314
     35 H035        6.3192   -2.3150    1.6360 H       1  UNL1        0.0314
     36 H036        6.2185   -1.1462    4.2231 H       1  UNL1        0.0620
     37 H037        5.7823    1.0739    5.2571 H       1  UNL1        0.0618
     38 H038        4.5205    2.8101    4.0177 H       1  UNL1        0.0618
     39 H039        3.6715    2.3521    1.7222 H       1  UNL1        0.0621
     40 H040        0.5940   -2.1152    0.7440 H       1  UNL1        0.0663
     41 H041       -0.5140   -3.6535    2.0950 H       1  UNL1        0.0660
     42 H042       -1.7099   -4.7993    1.4787 H       1  UNL1        0.0660
     43 H043       -0.4930   -4.1687    0.3628 H       1  UNL1        0.0660
@<TRIPOS>BOND
     1     1     2    1
     2     2     3    1
     3     3     4   ar
     4     4     5   ar
     5     5     6   ar
     6     6     7   ar
     7     7     8   ar
     8     8     9   ar
     9     9    10    1
    10    10    11    1
    11    11    12    1
    12    12    13    1
    13    13    14    1
    14    14    15   ar
    15    15    16   ar
    16    16    17   ar
    17    17    18   ar
    18    18    19   ar
    19     9    20   ar
    20    20    21   ar
    21    21    22   ar
    22    22    23    1
    23    23    24    1
    24    22     3   ar
    25    20     5   ar
    26    19    11    1
    27    19    14   ar
    28     1    25    1
    29     1    26    1
    30     1    27    1
    31     4    28    1
    32     7    29    1
    33    10    30    1
    34    11    31    1
    35    12    32    1
    36    12    33    1
    37    13    34    1
    38    13    35    1
    39    15    36    1
    40    16    37    1
    41    17    38    1
    42    18    39    1
    43    21    40    1
    44    24    41    1
    45    24    42    1
    46    24    43    1
