@<TRIPOS>MOLECULE
*****
 45 47 0 0 0
SMALL
GASTEIGER

@<TRIPOS>ATOM
      1 C001        8.0317   -2.8454   -2.2088 C.3     1  UNL1       -0.0128
      2 N002        7.4390   -2.7019   -0.8784 N.3     1  UNL1       -0.3054
      3 C003        8.3340   -1.9447   -0.0060 C.3     1  UNL1       -0.0128
      4 C004        6.0503   -2.1982   -0.9351 C.3     1  UNL1        0.0100
      5 C005        5.3099   -2.4118    0.4070 C.3     1  UNL1       -0.0357
      6 C006        4.9619   -1.1005    1.1068 C.3     1  UNL1       -0.0331
      7 C007        4.0698   -0.1931    0.2344 C.3     1  UNL1        0.0221
      8 N008        2.6696   -0.6216    0.3896 N.pl3   1  UNL1       -0.3256
      9 C009        1.6739    0.2980   -0.0163 C.ar    1  UNL1        0.1299
     10 N010        2.0443    1.5093   -0.4617 N.ar    1  UNL1       -0.2203
     11 C011        1.0646    2.3459   -0.8183 C.ar    1  UNL1        0.1187
     12 N012       -0.2480    2.0958   -0.7718 N.ar    1  UNL1       -0.2353
     13 C013       -0.6081    0.8835   -0.3445 C.ar    1  UNL1        0.0760
     14 C014       -1.9610    0.5720   -0.2912 C.ar    1  UNL1       -0.0350
     15 C015       -2.4195   -0.6803    0.1329 C.ar    1  UNL1       -0.0481
     16 C016       -1.5110   -1.6710    0.5100 C.ar    1  UNL1        0.0556
     17 C017       -1.9794   -3.0268    0.9786 C.3     1  UNL1        0.4174
     18 F018       -1.2025   -4.0441    0.5148 F       1  UNL1       -0.1659
     19 F019       -3.2512   -3.3221    0.5916 F       1  UNL1       -0.1659
     20 F020       -1.9656   -3.1336    2.3356 F       1  UNL1       -0.1659
     21 C021       -0.1433   -1.3646    0.4709 C.ar    1  UNL1       -0.0376
     22 C022        0.3200   -0.0889    0.0514 C.ar    1  UNL1        0.0406
     23 C023        4.4730   -0.2489   -1.2539 C.3     1  UNL1       -0.0331
     24 C024        5.8979   -0.7553   -1.4610 C.3     1  UNL1       -0.0357
     25 H025        8.1960   -1.8808   -2.7010 H       1  UNL1        0.0391
     26 H026        7.3969   -3.4616   -2.8550 H       1  UNL1        0.0391
     27 H027        8.9968   -3.3604   -2.1426 H       1  UNL1        0.0391
     28 H028        7.9359   -1.8627    1.0098 H       1  UNL1        0.0391
     29 H029        8.5394   -0.9368   -0.3809 H       1  UNL1        0.0391
     30 H030        9.2945   -2.4646    0.0884 H       1  UNL1        0.0391
     31 H031        5.5213   -2.8504   -1.6458 H       1  UNL1        0.0462
     32 H032        5.8870   -3.0512    1.0863 H       1  UNL1        0.0281
     33 H033        4.3823   -2.9674    0.2129 H       1  UNL1        0.0281
     34 H034        5.8901   -0.5658    1.3449 H       1  UNL1        0.0284
     35 H035        4.4800   -1.3135    2.0688 H       1  UNL1        0.0284
     36 H036        4.1958    0.8264    0.6225 H       1  UNL1        0.0498
     37 H037        2.4617   -0.8809    1.3513 H       1  UNL1        0.1478
     38 H038        1.3639    3.3246   -1.1774 H       1  UNL1        0.1048
     39 H039       -2.6842    1.3279   -0.5927 H       1  UNL1        0.0639
     40 H040       -3.4913   -0.8733    0.1565 H       1  UNL1        0.0624
     41 H041        0.5778   -2.1321    0.7526 H       1  UNL1        0.0631
     42 H042        3.7870   -0.8925   -1.8208 H       1  UNL1        0.0284
     43 H043        4.3817    0.7520   -1.6929 H       1  UNL1        0.0284
     44 H044        6.1388   -0.7190   -2.5299 H       1  UNL1        0.0281
     45 H045        6.5872   -0.0664   -0.9602 H       1  UNL1        0.0281
@<TRIPOS>BOND
     1     1     2    1
     2     2     3    1
     3     2     4    1
     4     4     5    1
     5     5     6    1
     6     6     7    1
     7     7     8    1
     8     8     9    1
     9     9    10   ar
    10    10    11   ar
    11    11    12   ar
    12    12    13   ar
    13    13    14   ar
    14    14    15   ar
    15    15    16   ar
    16    16    17    1
    17    17    18    1
    18    17    19    1
    19    17    20    1
    20    16    21   ar
    21    21    22   ar
    22     7    23    1
    23    23    24    1
    24    24     4    1
    25    22     9   ar
    26    22    13   ar
    27     1    25    1
    28     1    26    1
    29     1    27    1
    30     3    28    1
    31     3    29    1
    32     3    30    1
    33     4    31    1
    34     5    32    1
    35     5    33    1
    36     6    34    1
    37     6    35    1
    38     7    36    1
    39     8    37    1
    40    11    38    1
    41    14    39    1
    42    15    40    1
    43    21    41    1
    44    23    42    1
    45    23    43    1
    46    24    44    1
    47    24    45    1
