@<TRIPOS>MOLECULE
*****
 38 41 0 0 0
SMALL
GASTEIGER

@<TRIPOS>ATOM
      1 C001       -4.7284    0.0482   -0.0595 C.3     1  UNL1        0.0790
      2 O002       -3.7835   -0.9730    0.2291 O.3     1  UNL1       -0.4914
      3 C003       -2.4517   -0.6531    0.1469 C.ar    1  UNL1        0.1635
      4 C004       -1.9586    0.5952   -0.2432 C.ar    1  UNL1        0.0098
      5 C005       -0.5985    0.8684   -0.3082 C.ar    1  UNL1        0.0799
      6 N006       -0.2416    2.0802   -0.7438 N.ar    1  UNL1       -0.2352
      7 C007        1.0648    2.3309   -0.8537 C.ar    1  UNL1        0.1189
      8 N008        2.0477    1.4941   -0.5266 N.ar    1  UNL1       -0.2174
      9 C009        1.6755    0.2919   -0.0257 C.ar    1  UNL1        0.1490
     10 N010        2.7466   -0.5224    0.4770 N.ar    1  UNL1       -0.3002
     11 C011        2.6988   -1.3113    1.6143 C.ar    1  UNL1        0.0124
     12 C012        3.9176   -1.9183    1.7974 C.ar    1  UNL1       -0.0360
     13 C013        4.7798   -1.4625    0.7714 C.ar    1  UNL1        0.0002
     14 C014        6.1310   -1.7205    0.4632 C.ar    1  UNL1       -0.0526
     15 C015        6.7211   -1.0988   -0.6404 C.ar    1  UNL1       -0.0611
     16 C016        5.9835   -0.2304   -1.4356 C.ar    1  UNL1       -0.0598
     17 C017        4.6422    0.0414   -1.1493 C.ar    1  UNL1       -0.0372
     18 C018        4.0492   -0.5759   -0.0297 C.ar    1  UNL1        0.0551
     19 C019        0.3246   -0.1207    0.0602 C.ar    1  UNL1        0.0469
     20 C020       -0.1783   -1.4108    0.4045 C.ar    1  UNL1       -0.0036
     21 C021       -1.5489   -1.6757    0.4634 C.ar    1  UNL1        0.1623
     22 O022       -2.0954   -2.8864    0.8014 O.3     1  UNL1       -0.4914
     23 C023       -1.2143   -3.9357    1.1767 C.3     1  UNL1        0.0790
     24 H024       -4.6240    0.8909    0.6319 H       1  UNL1        0.0660
     25 H025       -5.7287   -0.3732    0.0792 H       1  UNL1        0.0660
     26 H026       -4.6479    0.3766   -1.1008 H       1  UNL1        0.0660
     27 H027       -2.6333    1.3984   -0.5243 H       1  UNL1        0.0677
     28 H028        1.3502    3.3049   -1.2360 H       1  UNL1        0.1048
     29 H029        1.8171   -1.3416    2.2394 H       1  UNL1        0.0813
     30 H030        4.1746   -2.5898    2.6063 H       1  UNL1        0.0639
     31 H031        6.7141   -2.3985    1.0800 H       1  UNL1        0.0624
     32 H032        7.7632   -1.2976   -0.8771 H       1  UNL1        0.0618
     33 H033        6.4525    0.2452   -2.2939 H       1  UNL1        0.0618
     34 H034        4.0800    0.7164   -1.7876 H       1  UNL1        0.0638
     35 H035        0.5241   -2.2160    0.5868 H       1  UNL1        0.0663
     36 H036       -0.6182   -3.6587    2.0525 H       1  UNL1        0.0660
     37 H037       -1.8236   -4.8026    1.4501 H       1  UNL1        0.0660
     38 H038       -0.5745   -4.2303    0.3386 H       1  UNL1        0.0660
@<TRIPOS>BOND
     1     1     2    1
     2     2     3    1
     3     3     4   ar
     4     4     5   ar
     5     5     6   ar
     6     6     7   ar
     7     7     8   ar
     8     8     9   ar
     9     9    10    1
    10    10    11   ar
    11    11    12   ar
    12    12    13   ar
    13    13    14   ar
    14    14    15   ar
    15    15    16   ar
    16    16    17   ar
    17    17    18   ar
    18     9    19   ar
    19    19    20   ar
    20    20    21   ar
    21    21    22    1
    22    22    23    1
    23    21     3   ar
    24    19     5   ar
    25    18    10   ar
    26    18    13   ar
    27     1    24    1
    28     1    25    1
    29     1    26    1
    30     4    27    1
    31     7    28    1
    32    11    29    1
    33    12    30    1
    34    14    31    1
    35    15    32    1
    36    16    33    1
    37    17    34    1
    38    20    35    1
    39    23    36    1
    40    23    37    1
    41    23    38    1
