@<TRIPOS>MOLECULE
*****
 41 44 0 0 0
SMALL
GASTEIGER

@<TRIPOS>ATOM
      1 C001       -4.7093   -0.0997   -0.2794 C.3     1  UNL1        0.0790
      2 O002       -3.7462   -1.0529    0.1483 O.3     1  UNL1       -0.4914
      3 C003       -2.4238   -0.6871    0.1055 C.ar    1  UNL1        0.1635
      4 C004       -1.9598    0.5592   -0.3304 C.ar    1  UNL1        0.0098
      5 C005       -0.6075    0.8755   -0.3552 C.ar    1  UNL1        0.0797
      6 N006       -0.2505    2.0905   -0.7774 N.ar    1  UNL1       -0.2352
      7 C007        1.0592    2.3597   -0.7879 C.ar    1  UNL1        0.1187
      8 N008        2.0365    1.5227   -0.4397 N.ar    1  UNL1       -0.2200
      9 C009        1.6776    0.3032   -0.0099 C.ar    1  UNL1        0.1351
     10 N010        2.6693   -0.6619    0.3277 N.pl3   1  UNL1       -0.2833
     11 C011        4.0498   -0.4392    0.5880 C.ar    1  UNL1        0.1317
     12 N012        4.5136    0.8229    0.7160 N.ar    1  UNL1       -0.2395
     13 C013        5.8191    1.0110    0.9785 C.ar    1  UNL1        0.0303
     14 C014        6.7229   -0.0160    1.1493 C.ar    1  UNL1       -0.0357
     15 C015        6.2620   -1.3288    1.0636 C.ar    1  UNL1       -0.0132
     16 C016        7.1473   -2.4038    1.2542 C.ar    1  UNL1       -0.0539
     17 C017        6.6979   -3.7216    1.1927 C.ar    1  UNL1       -0.0612
     18 C018        5.3567   -3.9821    0.9462 C.ar    1  UNL1       -0.0611
     19 C019        4.4663   -2.9232    0.7514 C.ar    1  UNL1       -0.0507
     20 C020        4.8947   -1.5706    0.7925 C.ar    1  UNL1        0.0222
     21 C021        0.3224   -0.0864    0.0578 C.ar    1  UNL1        0.0442
     22 C022       -0.1396   -1.3476    0.5156 C.ar    1  UNL1       -0.0038
     23 C023       -1.5021   -1.6496    0.5448 C.ar    1  UNL1        0.1623
     24 O024       -2.0234   -2.8460    0.9652 O.3     1  UNL1       -0.4914
     25 C025       -1.1522   -3.7461    1.6352 C.3     1  UNL1        0.0790
     26 H026       -4.5679    0.1587   -1.3340 H       1  UNL1        0.0660
     27 H027       -4.6899    0.7929    0.3544 H       1  UNL1        0.0660
     28 H028       -5.6987   -0.5564   -0.1794 H       1  UNL1        0.0660
     29 H029       -2.6485    1.3288   -0.6648 H       1  UNL1        0.0677
     30 H030        1.3571    3.3487   -1.1178 H       1  UNL1        0.1048
     31 H031        2.5944   -1.4006   -0.3627 H       1  UNL1        0.1550
     32 H032        6.1279    2.0497    1.0507 H       1  UNL1        0.0830
     33 H033        7.7624    0.2126    1.3581 H       1  UNL1        0.0639
     34 H034        8.2005   -2.2207    1.4591 H       1  UNL1        0.0624
     35 H035        7.3948   -4.5417    1.3457 H       1  UNL1        0.0618
     36 H036        4.9996   -5.0083    0.9095 H       1  UNL1        0.0618
     37 H037        3.4217   -3.1692    0.5806 H       1  UNL1        0.0625
     38 H038        0.5904   -2.0742    0.8557 H       1  UNL1        0.0663
     39 H039       -1.7529   -4.5858    1.9979 H       1  UNL1        0.0660
     40 H040       -0.4010   -4.1479    0.9476 H       1  UNL1        0.0660
     41 H041       -0.6814   -3.2738    2.5039 H       1  UNL1        0.0660
@<TRIPOS>BOND
     1     1     2    1
     2     2     3    1
     3     3     4   ar
     4     4     5   ar
     5     5     6   ar
     6     6     7   ar
     7     7     8   ar
     8     8     9   ar
     9     9    10    1
    10    10    11    1
    11    11    12   ar
    12    12    13   ar
    13    13    14   ar
    14    14    15   ar
    15    15    16   ar
    16    16    17   ar
    17    17    18   ar
    18    18    19   ar
    19    19    20   ar
    20     9    21   ar
    21    21    22   ar
    22    22    23   ar
    23    23    24    1
    24    24    25    1
    25    23     3   ar
    26    21     5   ar
    27    20    11   ar
    28    20    15   ar
    29     1    26    1
    30     1    27    1
    31     1    28    1
    32     4    29    1
    33     7    30    1
    34    10    31    1
    35    13    32    1
    36    14    33    1
    37    16    34    1
    38    17    35    1
    39    18    36    1
    40    19    37    1
    41    22    38    1
    42    25    39    1
    43    25    40    1
    44    25    41    1
