@<TRIPOS>MOLECULE
*****
 39 41 0 0 0
SMALL
GASTEIGER

@<TRIPOS>ATOM
      1 C001       -6.4161   -2.2574   -0.2589 C.2     1  UNL1       -0.0938
      2 C002       -6.1935   -0.9633    0.0072 C.2     1  UNL1       -0.0066
      3 C003       -4.8835   -0.2682   -0.1383 C.2     1  UNL1        0.2405
      4 O004       -4.8871    0.9140   -0.4550 O.2     1  UNL1       -0.2705
      5 N005       -3.7948   -1.0525    0.1695 N.am    1  UNL1       -0.2819
      6 C006       -2.4327   -0.6871    0.1187 C.ar    1  UNL1        0.0357
      7 C007       -1.5045   -1.6402    0.5361 C.ar    1  UNL1       -0.0397
      8 C008       -0.1411   -1.3484    0.5073 C.ar    1  UNL1       -0.0475
      9 C009        0.3222   -0.0905    0.0520 C.ar    1  UNL1        0.0405
     10 C010        1.6770    0.2988   -0.0183 C.ar    1  UNL1        0.1339
     11 N011        2.6780   -0.6484    0.3350 N.pl3   1  UNL1       -0.2989
     12 C012        4.0490   -0.4228    0.5961 C.ar    1  UNL1        0.0326
     13 C013        4.5311    0.7775    1.1274 C.ar    1  UNL1       -0.0405
     14 C014        5.8853    0.9379    1.4322 C.ar    1  UNL1       -0.0598
     15 C015        6.7764   -0.1150    1.2386 C.ar    1  UNL1       -0.0587
     16 C016        6.3157   -1.3441    0.7601 C.ar    1  UNL1       -0.0487
     17 C017        7.2704   -2.4788    0.5352 C.3     1  UNL1       -0.0397
     18 C018        4.9553   -1.4862    0.4435 C.ar    1  UNL1       -0.0376
     19 N019        2.0430    1.5256   -0.4288 N.ar    1  UNL1       -0.2200
     20 C020        1.0627    2.3566   -0.7895 C.ar    1  UNL1        0.1187
     21 N021       -0.2458    2.0852   -0.7814 N.ar    1  UNL1       -0.2352
     22 C022       -0.6103    0.8715   -0.3575 C.ar    1  UNL1        0.0778
     23 C023       -1.9669    0.5550   -0.3224 C.ar    1  UNL1       -0.0143
     24 H024       -7.4184   -2.6654   -0.1638 H       1  UNL1        0.0536
     25 H025       -5.6429   -2.9299   -0.6136 H       1  UNL1        0.0536
     26 H026       -7.0134   -0.3065    0.2831 H       1  UNL1        0.0663
     27 H027       -3.9918   -1.9808    0.5173 H       1  UNL1        0.1551
     28 H028       -1.8232   -2.6152    0.8958 H       1  UNL1        0.0636
     29 H029        0.5604   -2.1008    0.8605 H       1  UNL1        0.0626
     30 H030        2.5442   -1.4823   -0.2265 H       1  UNL1        0.1536
     31 H031        3.8560    1.6084    1.3130 H       1  UNL1        0.0636
     32 H032        6.2398    1.8869    1.8252 H       1  UNL1        0.0618
     33 H033        7.8284    0.0272    1.4743 H       1  UNL1        0.0620
     34 H034        8.1137   -2.4251    1.2318 H       1  UNL1        0.0278
     35 H035        7.6552   -2.4463   -0.4887 H       1  UNL1        0.0278
     36 H036        6.7762   -3.4423    0.6983 H       1  UNL1        0.0278
     37 H037        4.6026   -2.4438    0.0678 H       1  UNL1        0.0639
     38 H038        1.3560    3.3456   -1.1244 H       1  UNL1        0.1048
     39 H039       -2.6576    1.3250   -0.6553 H       1  UNL1        0.0657
@<TRIPOS>BOND
     1     1     2    2
     2     2     3    1
     3     3     4    2
     4     3     5   am
     5     5     6    1
     6     6     7   ar
     7     7     8   ar
     8     8     9   ar
     9     9    10   ar
    10    10    11    1
    11    11    12    1
    12    12    13   ar
    13    13    14   ar
    14    14    15   ar
    15    15    16   ar
    16    16    17    1
    17    16    18   ar
    18    10    19   ar
    19    19    20   ar
    20    20    21   ar
    21    21    22   ar
    22    22    23   ar
    23    23     6   ar
    24    22     9   ar
    25    18    12   ar
    26     1    24    1
    27     1    25    1
    28     2    26    1
    29     5    27    1
    30     7    28    1
    31     8    29    1
    32    11    30    1
    33    13    31    1
    34    14    32    1
    35    15    33    1
    36    17    34    1
    37    17    35    1
    38    17    36    1
    39    18    37    1
    40    20    38    1
    41    23    39    1
