@<TRIPOS>MOLECULE
*****
 35 38 0 0 0
SMALL
GASTEIGER

@<TRIPOS>ATOM
      1 F001        8.1772   -0.6125   -0.4049 F       1  UNL1       -0.2040
      2 C002        6.8477   -0.5904   -0.2299 C.ar    1  UNL1        0.1417
      3 C003        6.3091   -1.2376    0.8751 C.ar    1  UNL1       -0.0232
      4 C004        4.9259   -1.2284    1.0743 C.ar    1  UNL1       -0.0377
      5 C005        4.0702   -0.5523    0.1872 C.ar    1  UNL1        0.0339
      6 N006        2.6747   -0.6225    0.3978 N.pl3   1  UNL1       -0.2988
      7 C007        1.6723    0.2958   -0.0214 C.ar    1  UNL1        0.1339
      8 N008        2.0412    1.5120   -0.4619 N.ar    1  UNL1       -0.2200
      9 C009        1.0624    2.3481   -0.8168 C.ar    1  UNL1        0.1187
     10 N010       -0.2485    2.0924   -0.7722 N.ar    1  UNL1       -0.2352
     11 C011       -0.6105    0.8793   -0.3472 C.ar    1  UNL1        0.0796
     12 C012       -1.9630    0.5756   -0.2930 C.ar    1  UNL1        0.0080
     13 C013       -2.4157   -0.6701    0.1423 C.ar    1  UNL1        0.1433
     14 C014       -1.5059   -1.6715    0.5018 C.ar    1  UNL1        0.0703
     15 C015       -0.1443   -1.3679    0.4713 C.ar    1  UNL1       -0.0248
     16 C016        0.3188   -0.0931    0.0503 C.ar    1  UNL1        0.0424
     17 N017       -1.9078   -2.9594    0.9208 N.pl3   1  UNL1       -0.3378
     18 C018       -3.3287   -3.1989    0.6448 C.3     1  UNL1        0.0434
     19 C019       -4.1612   -1.9656    0.9834 C.3     1  UNL1        0.1050
     20 O020       -3.7795   -0.8386    0.1836 O.3     1  UNL1       -0.4885
     21 C021        4.6351    0.0616   -0.9401 C.ar    1  UNL1       -0.0194
     22 C022        6.0176    0.0542   -1.1412 C.ar    1  UNL1        0.0778
     23 CL023       6.6782    0.8339   -2.5278 Cl      1  UNL1       -0.0805
     24 H024        6.9670   -1.7499    1.5701 H       1  UNL1        0.0647
     25 H025        4.5221   -1.7532    1.9370 H       1  UNL1        0.0637
     26 H026        2.4482   -0.9458    1.3326 H       1  UNL1        0.1536
     27 H027        1.3595    3.3289   -1.1721 H       1  UNL1        0.1048
     28 H028       -2.6870    1.3311   -0.5886 H       1  UNL1        0.0676
     29 H029        0.5655   -2.1481    0.7359 H       1  UNL1        0.0645
     30 H030       -1.6807   -3.0804    1.9069 H       1  UNL1        0.1463
     31 H031       -3.6668   -4.0598    1.2307 H       1  UNL1        0.0495
     32 H032       -3.4414   -3.4514   -0.4167 H       1  UNL1        0.0495
     33 H033       -5.2187   -2.1659    0.7825 H       1  UNL1        0.0712
     34 H034       -4.0698   -1.6960    2.0433 H       1  UNL1        0.0712
     35 H035        3.9986    0.5453   -1.6761 H       1  UNL1        0.0652
@<TRIPOS>BOND
     1     1     2    1
     2     2     3   ar
     3     3     4   ar
     4     4     5   ar
     5     5     6    1
     6     6     7    1
     7     7     8   ar
     8     8     9   ar
     9     9    10   ar
    10    10    11   ar
    11    11    12   ar
    12    12    13   ar
    13    13    14   ar
    14    14    15   ar
    15    15    16   ar
    16    14    17    1
    17    17    18    1
    18    18    19    1
    19    19    20    1
    20     5    21   ar
    21    21    22   ar
    22    22    23    1
    23    22     2   ar
    24    16     7   ar
    25    16    11   ar
    26    20    13    1
    27     3    24    1
    28     4    25    1
    29     6    26    1
    30     9    27    1
    31    12    28    1
    32    15    29    1
    33    17    30    1
    34    18    31    1
    35    18    32    1
    36    19    33    1
    37    19    34    1
    38    21    35    1
