@<TRIPOS>MOLECULE
*****
 42 44 0 0 0
SMALL
GASTEIGER

@<TRIPOS>ATOM
      1 C001       -4.7175   -0.0510   -0.1541 C.3     1  UNL1        0.0790
      2 O002       -3.7522   -1.0259    0.2154 O.3     1  UNL1       -0.4914
      3 C003       -2.4274   -0.6748    0.1376 C.ar    1  UNL1        0.1635
      4 C004       -1.9628    0.5755   -0.2860 C.ar    1  UNL1        0.0098
      5 C005       -0.6084    0.8782   -0.3438 C.ar    1  UNL1        0.0797
      6 N006       -0.2485    2.0922   -0.7685 N.ar    1  UNL1       -0.2352
      7 C007        1.0627    2.3483   -0.8171 C.ar    1  UNL1        0.1187
      8 N008        2.0422    1.5120   -0.4679 N.ar    1  UNL1       -0.2200
      9 C009        1.6749    0.2955   -0.0282 C.ar    1  UNL1        0.1340
     10 N010        2.6711   -0.6213    0.4117 N.pl3   1  UNL1       -0.2987
     11 C011        4.0701   -0.5832    0.1845 C.ar    1  UNL1        0.0353
     12 C012        4.6026   -0.0065   -0.9783 C.ar    1  UNL1       -0.0400
     13 C013        5.9752   -0.0228   -1.2427 C.ar    1  UNL1       -0.0571
     14 C014        6.8571   -0.6351   -0.3539 C.ar    1  UNL1       -0.0501
     15 C015        8.3266   -0.6818   -0.6480 C.3     1  UNL1       -0.0397
     16 C016        6.3378   -1.2650    0.7813 C.ar    1  UNL1       -0.0542
     17 C017        4.9559   -1.2585    1.0550 C.ar    1  UNL1       -0.0290
     18 C018        4.4704   -1.9700    2.2897 C.3     1  UNL1       -0.0379
     19 C019        0.3208   -0.0938    0.0445 C.ar    1  UNL1        0.0441
     20 C020       -0.1397   -1.3697    0.4613 C.ar    1  UNL1       -0.0038
     21 C021       -1.5034   -1.6641    0.5075 C.ar    1  UNL1        0.1623
     22 O022       -2.0265   -2.8680    0.9034 O.3     1  UNL1       -0.4914
     23 C023       -1.1239   -3.9433    1.1208 C.3     1  UNL1        0.0790
     24 H024       -4.6112    0.2305   -1.2069 H       1  UNL1        0.0660
     25 H025       -4.6631    0.8262    0.4989 H       1  UNL1        0.0660
     26 H026       -5.7086   -0.4975   -0.0283 H       1  UNL1        0.0660
     27 H027       -2.6526    1.3572   -0.5889 H       1  UNL1        0.0677
     28 H028        1.3590    3.3301   -1.1700 H       1  UNL1        0.1048
     29 H029        2.4600   -0.8689    1.3714 H       1  UNL1        0.1536
     30 H030        3.9475    0.4634   -1.7071 H       1  UNL1        0.0636
     31 H031        6.3429    0.4442   -2.1532 H       1  UNL1        0.0621
     32 H032        8.9099   -0.6884    0.2789 H       1  UNL1        0.0278
     33 H033        8.6389    0.1975   -1.2211 H       1  UNL1        0.0278
     34 H034        8.5650   -1.5817   -1.2232 H       1  UNL1        0.0278
     35 H035        7.0189   -1.7744    1.4611 H       1  UNL1        0.0623
     36 H036        5.2848   -2.4921    2.8032 H       1  UNL1        0.0278
     37 H037        3.7188   -2.7214    2.0265 H       1  UNL1        0.0278
     38 H038        4.0407   -1.2517    2.9953 H       1  UNL1        0.0278
     39 H039        0.5935   -2.1220    0.7326 H       1  UNL1        0.0663
     40 H040       -1.7151   -4.8355    1.3486 H       1  UNL1        0.0660
     41 H041       -0.5341   -4.1552    0.2228 H       1  UNL1        0.0660
     42 H042       -0.4774   -3.7445    1.9817 H       1  UNL1        0.0660
@<TRIPOS>BOND
     1     1     2    1
     2     2     3    1
     3     3     4   ar
     4     4     5   ar
     5     5     6   ar
     6     6     7   ar
     7     7     8   ar
     8     8     9   ar
     9     9    10    1
    10    10    11    1
    11    11    12   ar
    12    12    13   ar
    13    13    14   ar
    14    14    15    1
    15    14    16   ar
    16    16    17   ar
    17    17    18    1
    18     9    19   ar
    19    19    20   ar
    20    20    21   ar
    21    21    22    1
    22    22    23    1
    23    21     3   ar
    24    19     5   ar
    25    17    11   ar
    26     1    24    1
    27     1    25    1
    28     1    26    1
    29     4    27    1
    30     7    28    1
    31    10    29    1
    32    12    30    1
    33    13    31    1
    34    15    32    1
    35    15    33    1
    36    15    34    1
    37    16    35    1
    38    18    36    1
    39    18    37    1
    40    18    38    1
    41    20    39    1
    42    23    40    1
    43    23    41    1
    44    23    42    1
