@<TRIPOS>MOLECULE
*****
 32 34 0 0 0
SMALL
GASTEIGER

@<TRIPOS>ATOM
      1 C001       -4.2496    1.2865   -0.6774 C.3     1  UNL1        0.0789
      2 O002       -2.8544    1.5396   -0.7499 O.3     1  UNL1       -0.4930
      3 C003       -1.9925    0.5512   -0.3228 C.ar    1  UNL1        0.1461
      4 C004       -2.4213   -0.7068    0.1224 C.ar    1  UNL1       -0.0178
      5 C005       -1.4944   -1.6520    0.5424 C.ar    1  UNL1       -0.0575
      6 C006       -0.1397   -1.3434    0.5091 C.ar    1  UNL1       -0.0490
      7 C007        0.3116   -0.0810    0.0488 C.ar    1  UNL1        0.0440
      8 C008        1.6694    0.2995   -0.0193 C.ar    1  UNL1        0.1340
      9 N009        2.6666   -0.6535    0.3339 N.pl3   1  UNL1       -0.2988
     10 C010        4.0383   -0.4289    0.5935 C.ar    1  UNL1        0.0334
     11 C011        4.9451   -1.4881    0.4222 C.ar    1  UNL1       -0.0404
     12 C012        6.3013   -1.3369    0.7267 C.ar    1  UNL1       -0.0590
     13 C013        6.7690   -0.1276    1.2335 C.ar    1  UNL1       -0.0476
     14 C014        5.8735    0.9173    1.4437 C.ar    1  UNL1        0.0196
     15 BR015       6.4983    2.5521    2.1617 Br      1  UNL1       -0.0502
     16 C016        4.5186    0.7672    1.1405 C.ar    1  UNL1       -0.0265
     17 N017        2.0509    1.5212   -0.4278 N.ar    1  UNL1       -0.2200
     18 C018        1.0809    2.3605   -0.7890 C.ar    1  UNL1        0.1189
     19 N019       -0.2273    2.0985   -0.7839 N.ar    1  UNL1       -0.2316
     20 C020       -0.6226    0.8839   -0.3629 C.ar    1  UNL1        0.1175
     21 H021       -4.7708    2.1831   -1.0265 H       1  UNL1        0.0660
     22 H022       -4.5653    1.0997    0.3542 H       1  UNL1        0.0660
     23 H023       -4.5349    0.4598   -1.3361 H       1  UNL1        0.0660
     24 H024       -3.4718   -0.9752    0.1573 H       1  UNL1        0.0655
     25 H025       -1.8265   -2.6235    0.9003 H       1  UNL1        0.0619
     26 H026        0.5687   -2.0891    0.8636 H       1  UNL1        0.0625
     27 H027        2.5276   -1.4847   -0.2314 H       1  UNL1        0.1536
     28 H028        4.6036   -2.4476    0.0416 H       1  UNL1        0.0636
     29 H029        6.9888   -2.1645    0.5730 H       1  UNL1        0.0618
     30 H030        7.8230   -0.0129    1.4705 H       1  UNL1        0.0629
     31 H031        3.8353    1.5882    1.3385 H       1  UNL1        0.0647
     32 H032        1.3821    3.3477   -1.1214 H       1  UNL1        0.1048
@<TRIPOS>BOND
     1     1     2    1
     2     2     3    1
     3     3     4   ar
     4     4     5   ar
     5     5     6   ar
     6     6     7   ar
     7     7     8   ar
     8     8     9    1
     9     9    10    1
    10    10    11   ar
    11    11    12   ar
    12    12    13   ar
    13    13    14   ar
    14    14    15    1
    15    14    16   ar
    16     8    17   ar
    17    17    18   ar
    18    18    19   ar
    19    19    20   ar
    20    20     3   ar
    21    20     7   ar
    22    16    10   ar
    23     1    21    1
    24     1    22    1
    25     1    23    1
    26     4    24    1
    27     5    25    1
    28     6    26    1
    29     9    27    1
    30    11    28    1
    31    12    29    1
    32    13    30    1
    33    16    31    1
    34    18    32    1
