@<TRIPOS>MOLECULE
*****
 36 38 0 0 0
SMALL
GASTEIGER

@<TRIPOS>ATOM
      1 N001       -1.9465   -2.9484    0.8410 N.pl3   1  UNL1       -0.3579
      2 C002       -1.5107   -1.6549    0.5479 C.ar    1  UNL1        0.0253
      3 C003       -2.4115   -0.6896    0.1122 C.ar    1  UNL1       -0.0390
      4 C004       -1.9589    0.5660   -0.3080 C.ar    1  UNL1       -0.0338
      5 C005       -0.6088    0.8844   -0.3423 C.ar    1  UNL1        0.0761
      6 N006       -0.2481    2.0997   -0.7633 N.ar    1  UNL1       -0.2353
      7 C007        1.0645    2.3485   -0.8098 C.ar    1  UNL1        0.1187
      8 N008        2.0439    1.5091   -0.4589 N.ar    1  UNL1       -0.2203
      9 C009        1.6709    0.2957   -0.0181 C.ar    1  UNL1        0.1297
     10 N010        2.6719   -0.6244    0.3763 N.pl3   1  UNL1       -0.3282
     11 C011        4.0444   -0.1230    0.2627 C.3     1  UNL1        0.0144
     12 C012        5.0270   -1.2367    0.6445 C.3     1  UNL1       -0.0121
     13 C013        6.4634   -0.7825    0.5573 C.ar    1  UNL1       -0.0458
     14 C014        7.1058   -0.2344    1.6763 C.ar    1  UNL1       -0.0575
     15 C015        8.4295    0.2021    1.5885 C.ar    1  UNL1       -0.0475
     16 C016        9.1140    0.0957    0.3797 C.ar    1  UNL1        0.0179
     17 BR017      10.9056    0.6872    0.2608 Br      1  UNL1       -0.0503
     18 C018        8.4871   -0.4414   -0.7423 C.ar    1  UNL1       -0.0475
     19 C019        7.1636   -0.8777   -0.6537 C.ar    1  UNL1       -0.0575
     20 C020        0.3173   -0.0899    0.0506 C.ar    1  UNL1        0.0418
     21 C021       -0.1488   -1.3666    0.4644 C.ar    1  UNL1       -0.0286
     22 H022       -2.9062   -3.0037    1.1680 H       1  UNL1        0.1423
     23 H023       -1.3093   -3.4888    1.4173 H       1  UNL1        0.1423
     24 H024       -3.4773   -0.9008    0.0865 H       1  UNL1        0.0637
     25 H025       -2.6832    1.3094   -0.6336 H       1  UNL1        0.0639
     26 H026        1.3644    3.3285   -1.1648 H       1  UNL1        0.1048
     27 H027        2.4599   -0.9256    1.3241 H       1  UNL1        0.1475
     28 H028        4.2498    0.1968   -0.7672 H       1  UNL1        0.0465
     29 H029        4.1895    0.7397    0.9258 H       1  UNL1        0.0465
     30 H030        4.8791   -2.1091   -0.0056 H       1  UNL1        0.0328
     31 H031        4.8172   -1.5922    1.6620 H       1  UNL1        0.0328
     32 H032        6.5802   -0.1434    2.6244 H       1  UNL1        0.0621
     33 H033        8.9149    0.6229    2.4650 H       1  UNL1        0.0629
     34 H034        9.0163   -0.5235   -1.6879 H       1  UNL1        0.0629
     35 H035        6.6810   -1.2922   -1.5369 H       1  UNL1        0.0621
     36 H036        0.5714   -2.1436    0.7084 H       1  UNL1        0.0644
@<TRIPOS>BOND
     1     1     2    1
     2     2     3   ar
     3     3     4   ar
     4     4     5   ar
     5     5     6   ar
     6     6     7   ar
     7     7     8   ar
     8     8     9   ar
     9     9    10    1
    10    10    11    1
    11    11    12    1
    12    12    13    1
    13    13    14   ar
    14    14    15   ar
    15    15    16   ar
    16    16    17    1
    17    16    18   ar
    18    18    19   ar
    19     9    20   ar
    20    20    21   ar
    21    21     2   ar
    22    20     5   ar
    23    19    13   ar
    24     1    22    1
    25     1    23    1
    26     3    24    1
    27     4    25    1
    28     7    26    1
    29    10    27    1
    30    11    28    1
    31    11    29    1
    32    12    30    1
    33    12    31    1
    34    14    32    1
    35    15    33    1
    36    18    34    1
    37    19    35    1
    38    21    36    1
