@<TRIPOS>MOLECULE
*****
 36 38 0 0 0
SMALL
GASTEIGER

@<TRIPOS>ATOM
      1 C001       -6.4854   -1.7753    1.0632 C.2     1  UNL1       -0.0938
      2 C002       -6.1964   -0.9451    0.0520 C.2     1  UNL1       -0.0066
      3 C003       -4.8825   -0.2760   -0.1629 C.2     1  UNL1        0.2405
      4 O004       -4.8752    0.8342   -0.6782 O.2     1  UNL1       -0.2705
      5 N005       -3.7971   -1.0396    0.2031 N.am    1  UNL1       -0.2819
      6 C006       -2.4338   -0.6825    0.1308 C.ar    1  UNL1        0.0357
      7 C007       -1.5038   -1.6504    0.5083 C.ar    1  UNL1       -0.0397
      8 C008       -0.1395   -1.3638    0.4664 C.ar    1  UNL1       -0.0475
      9 C009        0.3219   -0.0926    0.0479 C.ar    1  UNL1        0.0405
     10 C010        1.6764    0.2960   -0.0260 C.ar    1  UNL1        0.1339
     11 N011        2.6764   -0.6219    0.4018 N.pl3   1  UNL1       -0.2988
     12 C012        4.0715   -0.5586    0.1800 C.ar    1  UNL1        0.0338
     13 C013        4.9325   -1.2234    1.0693 C.ar    1  UNL1       -0.0404
     14 C014        6.3145   -1.2452    0.8593 C.ar    1  UNL1       -0.0586
     15 C015        6.8556   -0.6220   -0.2617 C.ar    1  UNL1       -0.0433
     16 C016        6.0098    0.0077   -1.1707 C.ar    1  UNL1        0.0427
     17 CL017       6.6747    0.7533   -2.5734 Cl      1  UNL1       -0.0835
     18 C018        4.6297    0.0295   -0.9615 C.ar    1  UNL1       -0.0222
     19 N019        2.0453    1.5112   -0.4668 N.ar    1  UNL1       -0.2200
     20 C020        1.0646    2.3472   -0.8156 C.ar    1  UNL1        0.1187
     21 N021       -0.2459    2.0906   -0.7653 N.ar    1  UNL1       -0.2352
     22 C022       -0.6111    0.8769   -0.3421 C.ar    1  UNL1        0.0778
     23 C023       -1.9688    0.5676   -0.2882 C.ar    1  UNL1       -0.0143
     24 H024       -5.7706   -2.0394    1.8345 H       1  UNL1        0.0536
     25 H025       -7.4882   -2.1817    1.1606 H       1  UNL1        0.0536
     26 H026       -6.9657   -0.6441   -0.6534 H       1  UNL1        0.0663
     27 H027       -3.9929   -1.9809    0.5149 H       1  UNL1        0.1551
     28 H028       -1.8211   -2.6387    0.8311 H       1  UNL1        0.0636
     29 H029        0.5653   -2.1443    0.7439 H       1  UNL1        0.0626
     30 H030        2.4639   -0.9053    1.3527 H       1  UNL1        0.1536
     31 H031        4.5337   -1.7300    1.9448 H       1  UNL1        0.0636
     32 H032        6.9651   -1.7526    1.5670 H       1  UNL1        0.0619
     33 H033        7.9292   -0.6391   -0.4275 H       1  UNL1        0.0632
     34 H034        3.9914    0.5050   -1.7006 H       1  UNL1        0.0651
     35 H035        1.3588    3.3290   -1.1704 H       1  UNL1        0.1048
     36 H036       -2.6608    1.3486   -0.5916 H       1  UNL1        0.0657
@<TRIPOS>BOND
     1     1     2    2
     2     2     3    1
     3     3     4    2
     4     3     5   am
     5     5     6    1
     6     6     7   ar
     7     7     8   ar
     8     8     9   ar
     9     9    10   ar
    10    10    11    1
    11    11    12    1
    12    12    13   ar
    13    13    14   ar
    14    14    15   ar
    15    15    16   ar
    16    16    17    1
    17    16    18   ar
    18    10    19   ar
    19    19    20   ar
    20    20    21   ar
    21    21    22   ar
    22    22    23   ar
    23    23     6   ar
    24    22     9   ar
    25    18    12   ar
    26     1    24    1
    27     1    25    1
    28     2    26    1
    29     5    27    1
    30     7    28    1
    31     8    29    1
    32    11    30    1
    33    13    31    1
    34    14    32    1
    35    15    33    1
    36    18    34    1
    37    20    35    1
    38    23    36    1
