@<TRIPOS>MOLECULE
*****
 28 30 0 0 0
SMALL
GASTEIGER

@<TRIPOS>ATOM
      1 BR001      -2.1058   -3.3234    1.1429 Br      1  UNL1       -0.0503
      2 C002       -1.5049   -1.6394    0.5352 C.ar    1  UNL1        0.0187
      3 C003       -2.4209   -0.6856    0.1167 C.ar    1  UNL1       -0.0457
      4 C004       -1.9617    0.5597   -0.3217 C.ar    1  UNL1       -0.0345
      5 C005       -0.6083    0.8746   -0.3575 C.ar    1  UNL1        0.0761
      6 N006       -0.2502    2.0882   -0.7807 N.ar    1  UNL1       -0.2353
      7 C007        1.0593    2.3567   -0.7907 C.ar    1  UNL1        0.1187
      8 N008        2.0385    1.5235   -0.4310 N.ar    1  UNL1       -0.2200
      9 C009        1.6748    0.2958   -0.0193 C.ar    1  UNL1        0.1339
     10 N010        2.6764   -0.6478    0.3382 N.pl3   1  UNL1       -0.2989
     11 C011        4.0477   -0.4228    0.5967 C.ar    1  UNL1        0.0324
     12 C012        4.9496   -1.4904    0.4603 C.ar    1  UNL1       -0.0405
     13 C013        6.3047   -1.3368    0.7686 C.ar    1  UNL1       -0.0600
     14 C014        6.7760   -0.1169    1.2440 C.ar    1  UNL1       -0.0616
     15 C015        5.8902    0.9419    1.4215 C.ar    1  UNL1       -0.0600
     16 C016        4.5355    0.7835    1.1121 C.ar    1  UNL1       -0.0405
     17 C017        0.3213   -0.0932    0.0526 C.ar    1  UNL1        0.0415
     18 C018       -0.1428   -1.3545    0.5094 C.ar    1  UNL1       -0.0353
     19 H019       -3.4884   -0.8892    0.1304 H       1  UNL1        0.0629
     20 H020       -2.6834    1.3088   -0.6424 H       1  UNL1        0.0639
     21 H021        1.3555    3.3448   -1.1258 H       1  UNL1        0.1048
     22 H022        2.5409   -1.4911   -0.2093 H       1  UNL1        0.1536
     23 H023        4.6060   -2.4589    0.1066 H       1  UNL1        0.0636
     24 H024        6.9884   -2.1721    0.6430 H       1  UNL1        0.0618
     25 H025        7.8280    0.0060    1.4864 H       1  UNL1        0.0618
     26 H026        6.2467    1.8927    1.8086 H       1  UNL1        0.0618
     27 H027        3.8639    1.6195    1.2869 H       1  UNL1        0.0636
     28 H028        0.5642   -2.1024    0.8601 H       1  UNL1        0.0636
@<TRIPOS>BOND
     1     1     2    1
     2     2     3   ar
     3     3     4   ar
     4     4     5   ar
     5     5     6   ar
     6     6     7   ar
     7     7     8   ar
     8     8     9   ar
     9     9    10    1
    10    10    11    1
    11    11    12   ar
    12    12    13   ar
    13    13    14   ar
    14    14    15   ar
    15    15    16   ar
    16     9    17   ar
    17    17    18   ar
    18    18     2   ar
    19    17     5   ar
    20    16    11   ar
    21     3    19    1
    22     4    20    1
    23     7    21    1
    24    10    22    1
    25    12    23    1
    26    13    24    1
    27    14    25    1
    28    15    26    1
    29    16    27    1
    30    18    28    1
