@<TRIPOS>MOLECULE
*****
 41 43 0 0 0
SMALL
GASTEIGER

@<TRIPOS>ATOM
      1 C001       -3.1510   -4.9085    1.5328 C.3     1  UNL1        0.0125
      2 C002       -3.1543   -3.4725    1.0703 C.2     1  UNL1        0.2141
      3 O003       -4.2086   -2.8757    0.8862 O.2     1  UNL1       -0.2758
      4 N004       -1.8750   -2.9638    0.9303 N.am    1  UNL1       -0.2857
      5 C005       -1.5104   -1.6685    0.5106 C.ar    1  UNL1        0.0342
      6 C006       -2.4161   -0.6844    0.1342 C.ar    1  UNL1       -0.0384
      7 C007       -1.9587    0.5709   -0.2885 C.ar    1  UNL1       -0.0338
      8 C008       -0.6083    0.8848   -0.3435 C.ar    1  UNL1        0.0761
      9 N009       -0.2464    2.0974   -0.7704 N.ar    1  UNL1       -0.2353
     10 C010        1.0656    2.3463   -0.8193 C.ar    1  UNL1        0.1187
     11 N011        2.0450    1.5078   -0.4649 N.ar    1  UNL1       -0.2203
     12 C012        1.6714    0.2975   -0.0177 C.ar    1  UNL1        0.1297
     13 N013        2.6681   -0.6197    0.3954 N.pl3   1  UNL1       -0.3282
     14 C014        4.0560   -0.1638    0.2572 C.3     1  UNL1        0.0144
     15 C015        4.5531   -0.2974   -1.1876 C.3     1  UNL1       -0.0121
     16 C016        6.0004    0.1144   -1.3198 C.ar    1  UNL1       -0.0458
     17 C017        6.3369    1.4681   -1.4641 C.ar    1  UNL1       -0.0571
     18 C018        7.6740    1.8568   -1.5684 C.ar    1  UNL1       -0.0431
     19 C019        8.6795    0.8937   -1.5258 C.ar    1  UNL1        0.0410
     20 CL020      10.3275    1.3720   -1.6526 Cl      1  UNL1       -0.0835
     21 C021        8.3596   -0.4545   -1.3791 C.ar    1  UNL1       -0.0431
     22 C022        7.0224   -0.8438   -1.2745 C.ar    1  UNL1       -0.0571
     23 C023        0.3177   -0.0885    0.0495 C.ar    1  UNL1        0.0419
     24 C024       -0.1463   -1.3655    0.4655 C.ar    1  UNL1       -0.0280
     25 H025       -2.3249   -5.4642    1.0800 H       1  UNL1        0.0323
     26 H026       -3.0610   -4.9377    2.6218 H       1  UNL1        0.0323
     27 H027       -4.0867   -5.3887    1.2320 H       1  UNL1        0.0323
     28 H028       -1.1123   -3.5897    1.1569 H       1  UNL1        0.1548
     29 H029       -3.4885   -0.8536    0.1441 H       1  UNL1        0.0637
     30 H030       -2.6868    1.3223   -0.5883 H       1  UNL1        0.0639
     31 H031        1.3645    3.3251   -1.1783 H       1  UNL1        0.1048
     32 H032        2.4671   -0.8652    1.3623 H       1  UNL1        0.1475
     33 H033        4.1905    0.8528    0.6489 H       1  UNL1        0.0465
     34 H034        4.6730   -0.8079    0.8971 H       1  UNL1        0.0465
     35 H035        3.9489    0.3055   -1.8760 H       1  UNL1        0.0328
     36 H036        4.4320   -1.3342   -1.5279 H       1  UNL1        0.0328
     37 H037        5.5562    2.2262   -1.4977 H       1  UNL1        0.0621
     38 H038        7.9224    2.9084   -1.6827 H       1  UNL1        0.0632
     39 H039        9.1442   -1.2055   -1.3463 H       1  UNL1        0.0632
     40 H040        6.7838   -1.8991   -1.1606 H       1  UNL1        0.0621
     41 H041        0.5835   -2.1242    0.7377 H       1  UNL1        0.0644
@<TRIPOS>BOND
     1     1     2    1
     2     2     3    2
     3     2     4   am
     4     4     5    1
     5     5     6   ar
     6     6     7   ar
     7     7     8   ar
     8     8     9   ar
     9     9    10   ar
    10    10    11   ar
    11    11    12   ar
    12    12    13    1
    13    13    14    1
    14    14    15    1
    15    15    16    1
    16    16    17   ar
    17    17    18   ar
    18    18    19   ar
    19    19    20    1
    20    19    21   ar
    21    21    22   ar
    22    12    23   ar
    23    23    24   ar
    24    24     5   ar
    25    23     8   ar
    26    22    16   ar
    27     1    25    1
    28     1    26    1
    29     1    27    1
    30     4    28    1
    31     6    29    1
    32     7    30    1
    33    10    31    1
    34    13    32    1
    35    14    33    1
    36    14    34    1
    37    15    35    1
    38    15    36    1
    39    17    37    1
    40    18    38    1
    41    21    39    1
    42    22    40    1
    43    24    41    1
