@<TRIPOS>MOLECULE
*****
 38 40 0 0 0
SMALL
GASTEIGER

@<TRIPOS>ATOM
      1 C001       -1.3883   -7.5776    1.0506 C.2     1  UNL1       -0.0564
      2 C002       -1.6821   -6.3458    1.3330 C.1     1  UNL1       -0.1285
      3 C003       -1.9820   -5.1113    1.6144 C.2     1  UNL1       -0.0054
      4 C004       -1.1561   -3.9203    1.2424 C.3     1  UNL1        0.1152
      5 O005       -2.0476   -2.8633    0.8975 O.3     1  UNL1       -0.4837
      6 C006       -1.5064   -1.6682    0.5111 C.ar    1  UNL1        0.1630
      7 C007       -0.1441   -1.3741    0.4650 C.ar    1  UNL1       -0.0038
      8 C008        0.3180   -0.0951    0.0470 C.ar    1  UNL1        0.0441
      9 C009        1.6717    0.2947   -0.0258 C.ar    1  UNL1        0.1340
     10 N010        2.6714   -0.6204    0.4067 N.pl3   1  UNL1       -0.2988
     11 C011        4.0657   -0.5666    0.1775 C.ar    1  UNL1        0.0338
     12 C012        4.6212    0.0135   -0.9707 C.ar    1  UNL1       -0.0404
     13 C013        6.0005   -0.0126   -1.2020 C.ar    1  UNL1       -0.0586
     14 C014        6.8466   -0.6458   -0.2960 C.ar    1  UNL1       -0.0433
     15 C015        6.3051   -1.2591    0.8292 C.ar    1  UNL1        0.0427
     16 CL016       7.3411   -2.0661    1.9427 Cl      1  UNL1       -0.0835
     17 C017        4.9280   -1.2334    1.0610 C.ar    1  UNL1       -0.0222
     18 N018        2.0401    1.5104   -0.4679 N.ar    1  UNL1       -0.2200
     19 C019        1.0615    2.3486   -0.8168 C.ar    1  UNL1        0.1187
     20 N020       -0.2497    2.0940   -0.7684 N.ar    1  UNL1       -0.2352
     21 C021       -0.6096    0.8806   -0.3439 C.ar    1  UNL1        0.0797
     22 C022       -1.9622    0.5796   -0.2899 C.ar    1  UNL1        0.0096
     23 C023       -2.4089   -0.6722    0.1340 C.ar    1  UNL1        0.1605
     24 O024       -3.7520   -0.9365    0.1787 O.3     1  UNL1       -0.5032
     25 H025       -0.9346   -8.2236    1.7935 H       1  UNL1        0.0622
     26 H026       -1.6081   -7.9868    0.0711 H       1  UNL1        0.0622
     27 H027       -2.8703   -4.9176    2.2089 H       1  UNL1        0.0693
     28 H028       -0.5503   -3.6320    2.1095 H       1  UNL1        0.0748
     29 H029       -0.5084   -4.1611    0.3907 H       1  UNL1        0.0748
     30 H030        0.5898   -2.1273    0.7319 H       1  UNL1        0.0663
     31 H031        2.4632   -0.8954    1.3615 H       1  UNL1        0.1536
     32 H032        3.9823    0.4922   -1.7089 H       1  UNL1        0.0636
     33 H033        6.4073    0.4562   -2.0943 H       1  UNL1        0.0619
     34 H034        7.9174   -0.6668   -0.4777 H       1  UNL1        0.0632
     35 H035        4.5316   -1.7341    1.9397 H       1  UNL1        0.0651
     36 H036        1.3589    3.3301   -1.1697 H       1  UNL1        0.1048
     37 H037       -2.6719    1.3459   -0.5891 H       1  UNL1        0.0677
     38 H038       -4.2460   -0.1642   -0.1393 H       1  UNL1        0.2923
@<TRIPOS>BOND
     1     1     2    2
     2     2     3    2
     3     3     4    1
     4     4     5    1
     5     5     6    1
     6     6     7   ar
     7     7     8   ar
     8     8     9   ar
     9     9    10    1
    10    10    11    1
    11    11    12   ar
    12    12    13   ar
    13    13    14   ar
    14    14    15   ar
    15    15    16    1
    16    15    17   ar
    17     9    18   ar
    18    18    19   ar
    19    19    20   ar
    20    20    21   ar
    21    21    22   ar
    22    22    23   ar
    23    23    24    1
    24    23     6   ar
    25    21     8   ar
    26    17    11   ar
    27     1    25    1
    28     1    26    1
    29     3    27    1
    30     4    28    1
    31     4    29    1
    32     7    30    1
    33    10    31    1
    34    12    32    1
    35    13    33    1
    36    14    34    1
    37    17    35    1
    38    19    36    1
    39    22    37    1
    40    24    38    1
