@<TRIPOS>MOLECULE
*****
 34 36 0 0 0
SMALL
GASTEIGER

@<TRIPOS>ATOM
      1 C001       -2.2601   -4.0198    1.3967 C.1     1  UNL1       -0.1138
      2 C002       -1.9192   -2.9373    1.0039 C.1     1  UNL1       -0.0660
      3 C003       -1.5071   -1.6453    0.5362 C.ar    1  UNL1        0.0670
      4 C004       -0.1415   -1.3503    0.5080 C.ar    1  UNL1       -0.0303
      5 C005        0.3231   -0.0922    0.0529 C.ar    1  UNL1        0.0418
      6 C006        1.6767    0.2971   -0.0202 C.ar    1  UNL1        0.1339
      7 N007        2.6815   -0.6440    0.3380 N.pl3   1  UNL1       -0.2988
      8 C008        4.0527   -0.4103    0.5877 C.ar    1  UNL1        0.0339
      9 C009        4.5291    0.7998    1.1132 C.ar    1  UNL1       -0.0377
     10 C010        5.8839    0.9754    1.4110 C.ar    1  UNL1       -0.0232
     11 C011        6.7732   -0.0716    1.2089 C.ar    1  UNL1        0.1417
     12 F012        8.0685    0.1138    1.5025 F       1  UNL1       -0.2040
     13 C013        6.3191   -1.2932    0.7234 C.ar    1  UNL1        0.0778
     14 CL014       7.4094   -2.6062    0.4909 Cl      1  UNL1       -0.0805
     15 C015        4.9644   -1.4667    0.4261 C.ar    1  UNL1       -0.0194
     16 N016        2.0414    1.5243   -0.4318 N.ar    1  UNL1       -0.2200
     17 C017        1.0609    2.3561   -0.7913 C.ar    1  UNL1        0.1187
     18 N018       -0.2481    2.0851   -0.7790 N.ar    1  UNL1       -0.2352
     19 C019       -0.6078    0.8712   -0.3554 C.ar    1  UNL1        0.0795
     20 C020       -1.9636    0.5603   -0.3214 C.ar    1  UNL1        0.0074
     21 C021       -2.4338   -0.6842    0.1151 C.ar    1  UNL1        0.1375
     22 O022       -3.7563   -1.0425    0.1663 O.3     1  UNL1       -0.4938
     23 C023       -4.7189   -0.0787   -0.2412 C.3     1  UNL1        0.0788
     24 H024       -2.5730   -4.9764    1.7448 H       1  UNL1        0.1232
     25 H025        0.5642   -2.1006    0.8588 H       1  UNL1        0.0638
     26 H026        2.5350   -1.4936   -0.1987 H       1  UNL1        0.1536
     27 H027        3.8463    1.6242    1.3048 H       1  UNL1        0.0637
     28 H028        6.2436    1.9202    1.8060 H       1  UNL1        0.0647
     29 H029        4.6235   -2.4323    0.0620 H       1  UNL1        0.0652
     30 H030        1.3546    3.3446   -1.1278 H       1  UNL1        0.1048
     31 H031       -2.6501    1.3348   -0.6506 H       1  UNL1        0.0676
     32 H032       -4.5895    0.1863   -1.2957 H       1  UNL1        0.0660
     33 H033       -5.7100   -0.5293   -0.1310 H       1  UNL1        0.0660
     34 H034       -4.6841    0.8089    0.3988 H       1  UNL1        0.0660
@<TRIPOS>BOND
     1     1     2    3
     2     2     3    1
     3     3     4   ar
     4     4     5   ar
     5     5     6   ar
     6     6     7    1
     7     7     8    1
     8     8     9   ar
     9     9    10   ar
    10    10    11   ar
    11    11    12    1
    12    11    13   ar
    13    13    14    1
    14    13    15   ar
    15     6    16   ar
    16    16    17   ar
    17    17    18   ar
    18    18    19   ar
    19    19    20   ar
    20    20    21   ar
    21    21    22    1
    22    22    23    1
    23    21     3   ar
    24    19     5   ar
    25    15     8   ar
    26     1    24    1
    27     4    25    1
    28     7    26    1
    29     9    27    1
    30    10    28    1
    31    15    29    1
    32    17    30    1
    33    20    31    1
    34    23    32    1
    35    23    33    1
    36    23    34    1
