@<TRIPOS>MOLECULE
*****
 39 41 0 0 0
SMALL
GASTEIGER

@<TRIPOS>ATOM
      1 C001       -4.7130   -0.0872   -0.2578 C.3     1  UNL1        0.0790
      2 O002       -3.7505   -1.0434    0.1640 O.3     1  UNL1       -0.4914
      3 C003       -2.4268   -0.6833    0.1132 C.ar    1  UNL1        0.1635
      4 C004       -1.9611    0.5623   -0.3229 C.ar    1  UNL1        0.0098
      5 C005       -0.6079    0.8735   -0.3553 C.ar    1  UNL1        0.0797
      6 N006       -0.2476    2.0879   -0.7791 N.ar    1  UNL1       -0.2352
      7 C007        1.0614    2.3573   -0.7930 C.ar    1  UNL1        0.1187
      8 N008        2.0411    1.5251   -0.4334 N.ar    1  UNL1       -0.2200
      9 C009        1.6743    0.3002   -0.0176 C.ar    1  UNL1        0.1340
     10 N010        2.6773   -0.6484    0.3364 N.pl3   1  UNL1       -0.2984
     11 C011        4.0528   -0.4297    0.6056 C.ar    1  UNL1        0.0441
     12 C012        4.4986    0.7947    1.1337 C.ar    1  UNL1       -0.0400
     13 C013        5.8373    1.0077    1.4735 C.ar    1  UNL1       -0.0600
     14 C014        6.7630   -0.0146    1.3227 C.ar    1  UNL1       -0.0611
     15 C015        6.3429   -1.2524    0.8457 C.ar    1  UNL1       -0.0483
     16 C016        4.9941   -1.4778    0.4927 C.ar    1  UNL1        0.0759
     17 C017        4.6149   -2.8640    0.0399 C.3     1  UNL1        0.4191
     18 F018        3.4392   -2.9113   -0.6569 F       1  UNL1       -0.1658
     19 F019        4.4550   -3.7281    1.0808 F       1  UNL1       -0.1658
     20 F020        5.5438   -3.4346   -0.7781 F       1  UNL1       -0.1658
     21 C021        0.3201   -0.0907    0.0541 C.ar    1  UNL1        0.0441
     22 C022       -0.1430   -1.3529    0.5093 C.ar    1  UNL1       -0.0038
     23 C023       -1.5061   -1.6529    0.5394 C.ar    1  UNL1        0.1623
     24 O024       -2.0322   -2.8468    0.9606 O.3     1  UNL1       -0.4914
     25 C025       -1.1344   -3.8376    1.4407 C.3     1  UNL1        0.0790
     26 H026       -5.7033   -0.5409   -0.1526 H       1  UNL1        0.0660
     27 H027       -4.5766    0.1716   -1.3129 H       1  UNL1        0.0660
     28 H028       -4.6875    0.8050    0.3764 H       1  UNL1        0.0660
     29 H029       -2.6495    1.3345   -0.6519 H       1  UNL1        0.0677
     30 H030        1.3560    3.3449   -1.1312 H       1  UNL1        0.1048
     31 H031        2.5244   -1.4749   -0.2418 H       1  UNL1        0.1536
     32 H032        3.7984    1.6104    1.2981 H       1  UNL1        0.0636
     33 H033        6.1470    1.9733    1.8653 H       1  UNL1        0.0618
     34 H034        7.8041    0.1464    1.5905 H       1  UNL1        0.0618
     35 H035        7.0722   -2.0570    0.7533 H       1  UNL1        0.0624
     36 H036        0.5854   -2.0816    0.8490 H       1  UNL1        0.0663
     37 H037       -0.4484   -4.1634    0.6519 H       1  UNL1        0.0660
     38 H038       -1.7263   -4.7059    1.7457 H       1  UNL1        0.0660
     39 H039       -0.5874   -3.4825    2.3202 H       1  UNL1        0.0660
@<TRIPOS>BOND
     1     1     2    1
     2     2     3    1
     3     3     4   ar
     4     4     5   ar
     5     5     6   ar
     6     6     7   ar
     7     7     8   ar
     8     8     9   ar
     9     9    10    1
    10    10    11    1
    11    11    12   ar
    12    12    13   ar
    13    13    14   ar
    14    14    15   ar
    15    15    16   ar
    16    16    17    1
    17    17    18    1
    18    17    19    1
    19    17    20    1
    20     9    21   ar
    21    21    22   ar
    22    22    23   ar
    23    23    24    1
    24    24    25    1
    25    23     3   ar
    26    21     5   ar
    27    16    11   ar
    28     1    26    1
    29     1    27    1
    30     1    28    1
    31     4    29    1
    32     7    30    1
    33    10    31    1
    34    12    32    1
    35    13    33    1
    36    14    34    1
    37    15    35    1
    38    22    36    1
    39    25    37    1
    40    25    38    1
    41    25    39    1
