@<TRIPOS>MOLECULE
*****
 34 36 0 0 0
SMALL
GASTEIGER

@<TRIPOS>ATOM
      1 C001        9.2282    0.0794    0.8434 C.3     1  UNL1       -0.0135
      2 S002        8.6066   -0.7023   -0.6689 S.3     1  UNL1       -0.1286
      3 C003        6.8573   -0.6644   -0.3310 C.ar    1  UNL1        0.0077
      4 C004        6.3117   -1.3150    0.7762 C.ar    1  UNL1       -0.0466
      5 C005        4.9314   -1.2782    1.0088 C.ar    1  UNL1       -0.0395
      6 C006        4.0689   -0.5769    0.1530 C.ar    1  UNL1        0.0324
      7 N007        2.6771   -0.6250    0.3924 N.pl3   1  UNL1       -0.2989
      8 C008        1.6765    0.2947   -0.0231 C.ar    1  UNL1        0.1341
      9 N009        2.0399    1.5121   -0.4634 N.ar    1  UNL1       -0.2200
     10 C010        1.0602    2.3489   -0.8132 C.ar    1  UNL1        0.1187
     11 N011       -0.2507    2.0909   -0.7675 N.ar    1  UNL1       -0.2353
     12 C012       -0.6082    0.8788   -0.3437 C.ar    1  UNL1        0.0764
     13 C013       -1.9639    0.5711   -0.2958 C.ar    1  UNL1       -0.0292
     14 C014       -2.4290   -0.6782    0.1278 C.ar    1  UNL1        0.0176
     15 C015       -1.5069   -1.6501    0.5116 C.ar    1  UNL1        0.2739
     16 N016       -1.9734   -2.9677    0.9592 N.pl3   1  UNL1        0.0796
     17 O017       -1.1304   -3.7438    1.4302 O.2     1  UNL1        0.0414
     18 O018       -3.1806   -3.2199    0.8459 O.co2   1  UNL1       -0.5760
     19 C019       -0.1366   -1.3704    0.4741 C.ar    1  UNL1        0.0280
     20 C020        0.3233   -0.0948    0.0517 C.ar    1  UNL1        0.0468
     21 C021        4.6238    0.0268   -0.9802 C.ar    1  UNL1       -0.0395
     22 C022        6.0035   -0.0082   -1.2175 C.ar    1  UNL1       -0.0466
     23 H023        8.7591    1.0561    0.9914 H       1  UNL1        0.0344
     24 H024        9.0387   -0.5518    1.7154 H       1  UNL1        0.0344
     25 H025       10.3082    0.2237    0.7521 H       1  UNL1        0.0344
     26 H026        6.9469   -1.8728    1.4592 H       1  UNL1        0.0629
     27 H027        4.5388   -1.8106    1.8714 H       1  UNL1        0.0636
     28 H028        2.4783   -0.9260    1.3409 H       1  UNL1        0.1536
     29 H029        1.3564    3.3313   -1.1653 H       1  UNL1        0.1048
     30 H030       -2.6838    1.3293   -0.6017 H       1  UNL1        0.0641
     31 H031       -3.5005   -0.8677    0.1462 H       1  UNL1        0.0686
     32 H032        0.5827   -2.1388    0.7522 H       1  UNL1        0.0693
     33 H033        3.9891    0.5289   -1.7054 H       1  UNL1        0.0636
     34 H034        6.3980    0.4793   -2.1059 H       1  UNL1        0.0629
@<TRIPOS>BOND
     1     1     2    1
     2     2     3    1
     3     3     4   ar
     4     4     5   ar
     5     5     6   ar
     6     6     7    1
     7     7     8    1
     8     8     9   ar
     9     9    10   ar
    10    10    11   ar
    11    11    12   ar
    12    12    13   ar
    13    13    14   ar
    14    14    15   ar
    15    15    16    1
    16    16    17    2
    17    16    18    1
    18    15    19   ar
    19    19    20   ar
    20     6    21   ar
    21    21    22   ar
    22    22     3   ar
    23    20     8   ar
    24    20    12   ar
    25     1    23    1
    26     1    24    1
    27     1    25    1
    28     4    26    1
    29     5    27    1
    30     7    28    1
    31    10    29    1
    32    13    30    1
    33    14    31    1
    34    19    32    1
    35    21    33    1
    36    22    34    1
