@<TRIPOS>MOLECULE
*****
 30 32 0 0 0
SMALL
GASTEIGER

@<TRIPOS>ATOM
      1 N001        0.7127   -2.3834    1.0141 N.pl3   1  UNL1       -0.3574
      2 C002       -0.1639   -1.3511    0.5964 C.ar    1  UNL1        0.0372
      3 C003       -1.5282   -1.6484    0.5111 C.ar    1  UNL1       -0.0402
      4 C004       -2.4248   -0.6885    0.0642 C.ar    1  UNL1       -0.0580
      5 C005       -1.9526    0.5604   -0.3338 C.ar    1  UNL1       -0.0355
      6 C006       -0.5998    0.8687   -0.3348 C.ar    1  UNL1        0.0778
      7 N007       -0.2501    2.0836   -0.7655 N.ar    1  UNL1       -0.2352
      8 C008        1.0556    2.3603   -0.7918 C.ar    1  UNL1        0.1187
      9 N009        2.0405    1.5311   -0.4481 N.ar    1  UNL1       -0.2199
     10 C010        1.6808    0.3033   -0.0273 C.ar    1  UNL1        0.1356
     11 N011        2.6988   -0.6434    0.2867 N.pl3   1  UNL1       -0.2988
     12 C012        4.0930   -0.4511    0.3911 C.ar    1  UNL1        0.0334
     13 C013        4.9449   -1.5494    0.1868 C.ar    1  UNL1       -0.0404
     14 C014        6.3294   -1.4312    0.3403 C.ar    1  UNL1       -0.0590
     15 C015        6.8838   -0.2143    0.7266 C.ar    1  UNL1       -0.0476
     16 C016        6.0470    0.8718    0.9679 C.ar    1  UNL1        0.0196
     17 BR017       6.7924    2.5194    1.5233 Br      1  UNL1       -0.0502
     18 C018        4.6637    0.7543    0.8152 C.ar    1  UNL1       -0.0265
     19 C019        0.3253   -0.0980    0.0939 C.ar    1  UNL1        0.0610
     20 H020        0.2540   -3.0756    1.6020 H       1  UNL1        0.1423
     21 H021        1.5251   -1.9914    1.4987 H       1  UNL1        0.1423
     22 H022       -1.9026   -2.6238    0.8108 H       1  UNL1        0.0636
     23 H023       -3.4886   -0.9070    0.0228 H       1  UNL1        0.0619
     24 H024       -2.6627    1.3111   -0.6758 H       1  UNL1        0.0639
     25 H025        1.3422    3.3496   -1.1310 H       1  UNL1        0.1048
     26 H026        2.4627   -1.5067   -0.2045 H       1  UNL1        0.1536
     27 H027        4.5352   -2.5139   -0.1043 H       1  UNL1        0.0636
     28 H028        6.9714   -2.2899    0.1620 H       1  UNL1        0.0618
     29 H029        7.9600   -0.1248    0.8459 H       1  UNL1        0.0629
     30 H030        4.0305    1.6087    1.0359 H       1  UNL1        0.0647
@<TRIPOS>BOND
     1     1     2    1
     2     2     3   ar
     3     3     4   ar
     4     4     5   ar
     5     5     6   ar
     6     6     7   ar
     7     7     8   ar
     8     8     9   ar
     9     9    10   ar
    10    10    11    1
    11    11    12    1
    12    12    13   ar
    13    13    14   ar
    14    14    15   ar
    15    15    16   ar
    16    16    17    1
    17    16    18   ar
    18    10    19   ar
    19    19     2   ar
    20    19     6   ar
    21    18    12   ar
    22     1    20    1
    23     1    21    1
    24     3    22    1
    25     4    23    1
    26     5    24    1
    27     8    25    1
    28    11    26    1
    29    13    27    1
    30    14    28    1
    31    15    29    1
    32    18    30    1
