@<TRIPOS>MOLECULE
*****
 34 37 0 0 0
SMALL
GASTEIGER

@<TRIPOS>ATOM
      1 C001       -4.4968   -0.8486    1.1357 C.3     1  UNL1        0.0010
      2 N002       -3.4510   -1.4286    0.3119 N.pl3   1  UNL1       -0.3283
      3 C003       -2.6187   -2.5124    0.8357 C.3     1  UNL1        0.0387
      4 C004       -1.4778   -1.6177    0.5071 C.ar    1  UNL1       -0.0084
      5 C005       -0.1293   -1.3918    0.4837 C.ar    1  UNL1       -0.0428
      6 C006        0.3149   -0.1099    0.0522 C.ar    1  UNL1        0.0409
      7 C007        1.6660    0.2836   -0.0235 C.ar    1  UNL1        0.1339
      8 N008        2.6705   -0.6310    0.3990 N.pl3   1  UNL1       -0.2988
      9 C009        4.0657   -0.5673    0.1808 C.ar    1  UNL1        0.0334
     10 C010        4.6279    0.0379   -0.9506 C.ar    1  UNL1       -0.0404
     11 C011        6.0092    0.0230   -1.1704 C.ar    1  UNL1       -0.0590
     12 C012        6.8518   -0.6232   -0.2704 C.ar    1  UNL1       -0.0476
     13 C013        6.3037   -1.2610    0.8380 C.ar    1  UNL1        0.0196
     14 BR014       7.4366   -2.1649    2.0534 Br      1  UNL1       -0.0502
     15 C015        4.9243   -1.2468    1.0589 C.ar    1  UNL1       -0.0265
     16 N016        2.0288    1.5019   -0.4644 N.ar    1  UNL1       -0.2200
     17 C017        1.0476    2.3397   -0.8109 C.ar    1  UNL1        0.1187
     18 N018       -0.2646    2.0896   -0.7628 N.ar    1  UNL1       -0.2352
     19 C019       -0.6288    0.8770   -0.3425 C.ar    1  UNL1        0.0778
     20 C020       -1.9885    0.5899   -0.2987 C.ar    1  UNL1       -0.0142
     21 C021       -2.3571   -0.6531    0.1117 C.ar    1  UNL1        0.0365
     22 H022       -4.1173   -0.5080    2.1065 H       1  UNL1        0.0428
     23 H023       -4.9662   -0.0009    0.6246 H       1  UNL1        0.0428
     24 H024       -5.2758   -1.5958    1.3195 H       1  UNL1        0.0428
     25 H025       -2.7384   -3.4263    0.2453 H       1  UNL1        0.0513
     26 H026       -2.8074   -2.7288    1.8927 H       1  UNL1        0.0513
     27 H027        0.5609   -2.1711    0.7845 H       1  UNL1        0.0629
     28 H028        2.4542   -0.9340    1.3428 H       1  UNL1        0.1536
     29 H029        3.9927    0.5272   -1.6849 H       1  UNL1        0.0636
     30 H030        6.4204    0.5112   -2.0502 H       1  UNL1        0.0618
     31 H031        7.9236   -0.6328   -0.4472 H       1  UNL1        0.0629
     32 H032        4.5190   -1.7653    1.9232 H       1  UNL1        0.0647
     33 H033        1.3457    3.3215   -1.1629 H       1  UNL1        0.1048
     34 H034       -2.7214    1.3249   -0.6068 H       1  UNL1        0.0658
@<TRIPOS>BOND
     1     1     2    1
     2     2     3    1
     3     3     4    1
     4     4     5   ar
     5     5     6   ar
     6     6     7   ar
     7     7     8    1
     8     8     9    1
     9     9    10   ar
    10    10    11   ar
    11    11    12   ar
    12    12    13   ar
    13    13    14    1
    14    13    15   ar
    15     7    16   ar
    16    16    17   ar
    17    17    18   ar
    18    18    19   ar
    19    19    20   ar
    20    20    21   ar
    21    21     2    1
    22    21     4   ar
    23    19     6   ar
    24    15     9   ar
    25     1    22    1
    26     1    23    1
    27     1    24    1
    28     3    25    1
    29     3    26    1
    30     5    27    1
    31     8    28    1
    32    10    29    1
    33    11    30    1
    34    12    31    1
    35    15    32    1
    36    17    33    1
    37    20    34    1
