@<TRIPOS>MOLECULE
*****
 32 34 0 0 0
SMALL
GASTEIGER

@<TRIPOS>ATOM
      1 C001       -4.3137   -2.0727    0.5451 C.3     1  UNL1        0.0788
      2 O002       -3.7852   -0.8336    0.0889 O.3     1  UNL1       -0.4950
      3 C003       -2.4261   -0.6886    0.1176 C.ar    1  UNL1        0.1221
      4 C004       -1.5105   -1.6446    0.5381 C.ar    1  UNL1       -0.0192
      5 C005       -0.1462   -1.3497    0.5082 C.ar    1  UNL1       -0.0458
      6 C006        0.3212   -0.0909    0.0520 C.ar    1  UNL1        0.0407
      7 C007        1.6754    0.2982   -0.0196 C.ar    1  UNL1        0.1339
      8 N008        2.6783   -0.6465    0.3356 N.pl3   1  UNL1       -0.2988
      9 C009        4.0504   -0.4142    0.5855 C.ar    1  UNL1        0.0334
     10 C010        4.9604   -1.4716    0.4192 C.ar    1  UNL1       -0.0404
     11 C011        6.3178   -1.3122    0.7138 C.ar    1  UNL1       -0.0590
     12 C012        6.7840   -0.0961    1.2054 C.ar    1  UNL1       -0.0476
     13 C013        5.8857    0.9475    1.4104 C.ar    1  UNL1        0.0196
     14 BR014       6.5086    2.5920    2.1076 Br      1  UNL1       -0.0502
     15 C015        4.5296    0.7892    1.1171 C.ar    1  UNL1       -0.0265
     16 N016        2.0420    1.5251   -0.4307 N.ar    1  UNL1       -0.2200
     17 C017        1.0623    2.3582   -0.7897 C.ar    1  UNL1        0.1187
     18 N018       -0.2468    2.0886   -0.7810 N.ar    1  UNL1       -0.2352
     19 C019       -0.6079    0.8736   -0.3578 C.ar    1  UNL1        0.0795
     20 C020       -1.9599    0.5548   -0.3219 C.ar    1  UNL1        0.0062
     21 H021       -4.0668   -2.2431    1.5982 H       1  UNL1        0.0660
     22 H022       -5.4036   -2.0221    0.4622 H       1  UNL1        0.0660
     23 H023       -3.9698   -2.9024   -0.0813 H       1  UNL1        0.0660
     24 H024       -1.8197   -2.6201    0.8983 H       1  UNL1        0.0654
     25 H025        0.5545   -2.1028    0.8617 H       1  UNL1        0.0626
     26 H026        2.5386   -1.4858   -0.2174 H       1  UNL1        0.1536
     27 H027        4.6204   -2.4362    0.0504 H       1  UNL1        0.0636
     28 H028        7.0076   -2.1387    0.5643 H       1  UNL1        0.0618
     29 H029        7.8390    0.0250    1.4346 H       1  UNL1        0.0629
     30 H030        3.8447    1.6096    1.3114 H       1  UNL1        0.0647
     31 H031        1.3574    3.3472   -1.1231 H       1  UNL1        0.1048
     32 H032       -2.6805    1.3041   -0.6443 H       1  UNL1        0.0676
@<TRIPOS>BOND
     1     1     2    1
     2     2     3    1
     3     3     4   ar
     4     4     5   ar
     5     5     6   ar
     6     6     7   ar
     7     7     8    1
     8     8     9    1
     9     9    10   ar
    10    10    11   ar
    11    11    12   ar
    12    12    13   ar
    13    13    14    1
    14    13    15   ar
    15     7    16   ar
    16    16    17   ar
    17    17    18   ar
    18    18    19   ar
    19    19    20   ar
    20    20     3   ar
    21    19     6   ar
    22    15     9   ar
    23     1    21    1
    24     1    22    1
    25     1    23    1
    26     4    24    1
    27     5    25    1
    28     8    26    1
    29    10    27    1
    30    11    28    1
    31    12    29    1
    32    15    30    1
    33    17    31    1
    34    20    32    1
