@<TRIPOS>MOLECULE
*****
 48 50 0 0 0
SMALL
GASTEIGER

@<TRIPOS>ATOM
      1 C001       10.6589    2.1309    0.3537 C.3     1  UNL1       -0.0560
      2 C002       10.6187    0.5909    0.2509 C.3     1  UNL1       -0.0127
      3 C003       11.3208    0.2028   -1.0701 C.3     1  UNL1       -0.0560
      4 C004       11.4474   -0.0169    1.4033 C.3     1  UNL1       -0.0560
      5 C005        9.1624    0.1039    0.3477 C.ar    1  UNL1       -0.0420
      6 C006        8.3989    0.3827    1.4973 C.ar    1  UNL1       -0.0578
      7 C007        7.0726   -0.0441    1.6183 C.ar    1  UNL1       -0.0582
      8 C008        6.4655   -0.7697    0.5915 C.ar    1  UNL1       -0.0459
      9 C009        5.0294   -1.2121    0.7103 C.3     1  UNL1       -0.0121
     10 C010        4.0519   -0.1405    0.2126 C.3     1  UNL1        0.0144
     11 N011        2.6783   -0.6378    0.3385 N.pl3   1  UNL1       -0.3282
     12 C012        1.6761    0.2901   -0.0336 C.ar    1  UNL1        0.1297
     13 N013        2.0447    1.5169   -0.4383 N.ar    1  UNL1       -0.2203
     14 C014        1.0630    2.3557   -0.7835 C.ar    1  UNL1        0.1187
     15 N015       -0.2479    2.0917   -0.7718 N.ar    1  UNL1       -0.2352
     16 C016       -0.6090    0.8743   -0.3537 C.ar    1  UNL1        0.0777
     17 C017       -1.9635    0.5571   -0.3102 C.ar    1  UNL1       -0.0149
     18 C018       -2.4298   -0.7012    0.0854 C.ar    1  UNL1        0.0266
     19 N019       -3.8019   -0.9360    0.2256 N.pl3   1  UNL1       -0.3579
     20 C020       -1.5081   -1.6324    0.5516 C.ar    1  UNL1       -0.0403
     21 C021       -0.1438   -1.3440    0.5181 C.ar    1  UNL1       -0.0475
     22 C022        0.3217   -0.0922    0.0484 C.ar    1  UNL1        0.0402
     23 C023        7.2065   -1.0505   -0.5590 C.ar    1  UNL1       -0.0582
     24 C024        8.5344   -0.6218   -0.6770 C.ar    1  UNL1       -0.0578
     25 H025       10.2788    2.4923    1.3155 H       1  UNL1        0.0238
     26 H026       10.0539    2.5948   -0.4344 H       1  UNL1        0.0238
     27 H027       11.6836    2.5072    0.2526 H       1  UNL1        0.0238
     28 H028       11.3634   -0.8849   -1.2001 H       1  UNL1        0.0238
     29 H029       10.8094    0.6313   -1.9400 H       1  UNL1        0.0238
     30 H030       12.3539    0.5702   -1.0911 H       1  UNL1        0.0238
     31 H031       11.0844    0.2999    2.3871 H       1  UNL1        0.0238
     32 H032       12.4987    0.2868    1.3370 H       1  UNL1        0.0238
     33 H033       11.4144   -1.1126    1.3775 H       1  UNL1        0.0238
     34 H034        8.8297    0.9440    2.3238 H       1  UNL1        0.0621
     35 H035        6.5191    0.1979    2.5233 H       1  UNL1        0.0620
     36 H036        4.8859   -2.1439    0.1475 H       1  UNL1        0.0328
     37 H037        4.8096   -1.4661    1.7557 H       1  UNL1        0.0328
     38 H038        4.2728    0.1018   -0.8351 H       1  UNL1        0.0465
     39 H039        4.1842    0.7701    0.8112 H       1  UNL1        0.0465
     40 H040        2.5363   -1.4837   -0.2076 H       1  UNL1        0.1475
     41 H041        1.3592    3.3470   -1.1085 H       1  UNL1        0.1048
     42 H042       -2.6764    1.3262   -0.5984 H       1  UNL1        0.0657
     43 H043       -4.0619   -1.9171    0.2091 H       1  UNL1        0.1423
     44 H044       -4.3846   -0.3714   -0.3856 H       1  UNL1        0.1423
     45 H045       -1.8409   -2.5872    0.9499 H       1  UNL1        0.0636
     46 H046        0.5580   -2.0875    0.8883 H       1  UNL1        0.0626
     47 H047        6.7588   -1.6072   -1.3795 H       1  UNL1        0.0620
     48 H048        9.0578   -0.8730   -1.5952 H       1  UNL1        0.0621
@<TRIPOS>BOND
     1     1     2    1
     2     2     3    1
     3     2     4    1
     4     2     5    1
     5     5     6   ar
     6     6     7   ar
     7     7     8   ar
     8     8     9    1
     9     9    10    1
    10    10    11    1
    11    11    12    1
    12    12    13   ar
    13    13    14   ar
    14    14    15   ar
    15    15    16   ar
    16    16    17   ar
    17    17    18   ar
    18    18    19    1
    19    18    20   ar
    20    20    21   ar
    21    21    22   ar
    22     8    23   ar
    23    23    24   ar
    24    24     5   ar
    25    22    12   ar
    26    22    16   ar
    27     1    25    1
    28     1    26    1
    29     1    27    1
    30     3    28    1
    31     3    29    1
    32     3    30    1
    33     4    31    1
    34     4    32    1
    35     4    33    1
    36     6    34    1
    37     7    35    1
    38     9    36    1
    39     9    37    1
    40    10    38    1
    41    10    39    1
    42    11    40    1
    43    14    41    1
    44    17    42    1
    45    19    43    1
    46    19    44    1
    47    20    45    1
    48    21    46    1
    49    23    47    1
    50    24    48    1
