@<TRIPOS>MOLECULE
*****
 29 31 0 0 0
SMALL
GASTEIGER

@<TRIPOS>ATOM
      1 O001        8.0953   -0.0026    1.5120 O.3     1  UNL1       -0.5068
      2 C002        6.7673   -0.1147    1.2272 C.ar    1  UNL1        0.1170
      3 C003        5.8931    0.9485    1.4114 C.ar    1  UNL1       -0.0184
      4 C004        4.5372    0.7857    1.1063 C.ar    1  UNL1       -0.0371
      5 C005        4.0486   -0.4225    0.5923 C.ar    1  UNL1        0.0326
      6 N006        2.6767   -0.6475    0.3381 N.pl3   1  UNL1       -0.2989
      7 C007        1.6747    0.2958   -0.0196 C.ar    1  UNL1        0.1339
      8 N008        2.0388    1.5239   -0.4304 N.ar    1  UNL1       -0.2200
      9 C009        1.0593    2.3566   -0.7910 C.ar    1  UNL1        0.1187
     10 N010       -0.2501    2.0880   -0.7807 N.ar    1  UNL1       -0.2353
     11 C011       -0.6083    0.8745   -0.3575 C.ar    1  UNL1        0.0761
     12 C012       -1.9617    0.5597   -0.3216 C.ar    1  UNL1       -0.0345
     13 C013       -2.4210   -0.6855    0.1168 C.ar    1  UNL1       -0.0457
     14 C014       -1.5051   -1.6394    0.5352 C.ar    1  UNL1        0.0187
     15 BR015      -2.1062   -3.3233    1.1430 Br      1  UNL1       -0.0503
     16 C016       -0.1430   -1.3546    0.5092 C.ar    1  UNL1       -0.0353
     17 C017        0.3213   -0.0933    0.0525 C.ar    1  UNL1        0.0415
     18 C018        4.9500   -1.4904    0.4519 C.ar    1  UNL1       -0.0371
     19 C019        6.3055   -1.3347    0.7552 C.ar    1  UNL1       -0.0184
     20 H020        8.2678    0.9019    1.8210 H       1  UNL1        0.2921
     21 H021        6.2359    1.9034    1.7960 H       1  UNL1        0.0655
     22 H022        3.8633    1.6196    1.2830 H       1  UNL1        0.0637
     23 H023        2.5388   -1.4928   -0.2061 H       1  UNL1        0.1536
     24 H024        1.3551    3.3445   -1.1269 H       1  UNL1        0.1048
     25 H025       -2.6834    1.3088   -0.6423 H       1  UNL1        0.0639
     26 H026       -3.4885   -0.8891    0.1306 H       1  UNL1        0.0629
     27 H027        0.5637   -2.1030    0.8597 H       1  UNL1        0.0636
     28 H028        4.6077   -2.4595    0.0992 H       1  UNL1        0.0637
     29 H029        6.9942   -2.1648    0.6289 H       1  UNL1        0.0655
@<TRIPOS>BOND
     1     1     2    1
     2     2     3   ar
     3     3     4   ar
     4     4     5   ar
     5     5     6    1
     6     6     7    1
     7     7     8   ar
     8     8     9   ar
     9     9    10   ar
    10    10    11   ar
    11    11    12   ar
    12    12    13   ar
    13    13    14   ar
    14    14    15    1
    15    14    16   ar
    16    16    17   ar
    17     5    18   ar
    18    18    19   ar
    19    19     2   ar
    20    17     7   ar
    21    17    11   ar
    22     1    20    1
    23     3    21    1
    24     4    22    1
    25     6    23    1
    26     9    24    1
    27    12    25    1
    28    13    26    1
    29    16    27    1
    30    18    28    1
    31    19    29    1
