@<TRIPOS>MOLECULE
*****
 34 36 0 0 0
SMALL
GASTEIGER

@<TRIPOS>ATOM
      1 BR001      -2.1033   -3.3483    1.0735 Br      1  UNL1       -0.0503
      2 C002       -1.5038   -1.6488    0.5088 C.ar    1  UNL1        0.0187
      3 C003       -2.4218   -0.6811    0.1279 C.ar    1  UNL1       -0.0457
      4 C004       -1.9634    0.5697   -0.2956 C.ar    1  UNL1       -0.0345
      5 C005       -0.6092    0.8799   -0.3432 C.ar    1  UNL1        0.0761
      6 N006       -0.2499    2.0923   -0.7696 N.ar    1  UNL1       -0.2353
      7 C007        1.0623    2.3420   -0.8176 C.ar    1  UNL1        0.1187
      8 N008        2.0422    1.5065   -0.4593 N.ar    1  UNL1       -0.2203
      9 C009        1.6733    0.2966   -0.0055 C.ar    1  UNL1        0.1297
     10 N010        2.6732   -0.6188    0.3769 N.pl3   1  UNL1       -0.3282
     11 C011        4.0595   -0.1388    0.3558 C.3     1  UNL1        0.0144
     12 C012        4.4036    0.7877    1.5335 C.3     1  UNL1       -0.0121
     13 C013        4.1943    0.1447    2.8864 C.ar    1  UNL1       -0.0459
     14 C014        3.0762    0.4803    3.6630 C.ar    1  UNL1       -0.0585
     15 C015        2.8645   -0.1309    4.8992 C.ar    1  UNL1       -0.0615
     16 C016        3.7674   -1.0817    5.3708 C.ar    1  UNL1       -0.0617
     17 C017        4.8829   -1.4215    4.6075 C.ar    1  UNL1       -0.0615
     18 C018        5.0965   -0.8120    3.3703 C.ar    1  UNL1       -0.0585
     19 C019        0.3206   -0.0930    0.0546 C.ar    1  UNL1        0.0411
     20 C020       -0.1416   -1.3673    0.4737 C.ar    1  UNL1       -0.0353
     21 H021       -3.4895   -0.8827    0.1477 H       1  UNL1        0.0629
     22 H022       -2.6857    1.3241   -0.6016 H       1  UNL1        0.0639
     23 H023        1.3614    3.3194   -1.1804 H       1  UNL1        0.1048
     24 H024        2.4440   -1.0134    1.2871 H       1  UNL1        0.1475
     25 H025        4.2927    0.3520   -0.5973 H       1  UNL1        0.0465
     26 H026        4.7055   -1.0243    0.3979 H       1  UNL1        0.0465
     27 H027        5.4553    1.0914    1.4532 H       1  UNL1        0.0328
     28 H028        3.8255    1.7174    1.4778 H       1  UNL1        0.0328
     29 H029        2.3618    1.2201    3.3065 H       1  UNL1        0.0620
     30 H030        1.9958    0.1365    5.4953 H       1  UNL1        0.0618
     31 H031        3.6032   -1.5561    6.3349 H       1  UNL1        0.0618
     32 H032        5.5882   -2.1615    4.9771 H       1  UNL1        0.0618
     33 H033        5.9721   -1.0887    2.7873 H       1  UNL1        0.0620
     34 H034        0.5712   -2.1376    0.7576 H       1  UNL1        0.0636
@<TRIPOS>BOND
     1     1     2    1
     2     2     3   ar
     3     3     4   ar
     4     4     5   ar
     5     5     6   ar
     6     6     7   ar
     7     7     8   ar
     8     8     9   ar
     9     9    10    1
    10    10    11    1
    11    11    12    1
    12    12    13    1
    13    13    14   ar
    14    14    15   ar
    15    15    16   ar
    16    16    17   ar
    17    17    18   ar
    18     9    19   ar
    19    19    20   ar
    20    20     2   ar
    21    19     5   ar
    22    18    13   ar
    23     3    21    1
    24     4    22    1
    25     7    23    1
    26    10    24    1
    27    11    25    1
    28    11    26    1
    29    12    27    1
    30    12    28    1
    31    14    29    1
    32    15    30    1
    33    16    31    1
    34    17    32    1
    35    18    33    1
    36    20    34    1
