@<TRIPOS>MOLECULE
*****
 32 34 0 0 0
SMALL
GASTEIGER

@<TRIPOS>ATOM
      1 C001       -1.1992   -3.8122    1.4889 C.3     1  UNL1        0.0788
      2 O002       -2.0734   -2.8213    0.9628 O.3     1  UNL1       -0.4951
      3 C003       -1.5085   -1.6509    0.5444 C.ar    1  UNL1        0.1209
      4 C004       -2.4116   -0.6860    0.1127 C.ar    1  UNL1       -0.0179
      5 C005       -1.9581    0.5606   -0.3276 C.ar    1  UNL1       -0.0321
      6 C006       -0.6079    0.8769   -0.3591 C.ar    1  UNL1        0.0762
      7 N007       -0.2480    2.0911   -0.7817 N.ar    1  UNL1       -0.2353
      8 C008        1.0611    2.3593   -0.7889 C.ar    1  UNL1        0.1187
      9 N009        2.0393    1.5253   -0.4282 N.ar    1  UNL1       -0.2200
     10 C010        1.6712    0.2980   -0.0184 C.ar    1  UNL1        0.1340
     11 N011        2.6744   -0.6498    0.3287 N.pl3   1  UNL1       -0.2988
     12 C012        4.0447   -0.4192    0.5903 C.ar    1  UNL1        0.0334
     13 C013        4.5178    0.7794    1.1399 C.ar    1  UNL1       -0.0404
     14 C014        5.8703    0.9491    1.4535 C.ar    1  UNL1       -0.0590
     15 C015        6.7706   -0.0921    1.2458 C.ar    1  UNL1       -0.0476
     16 C016        6.3077   -1.3011    0.7362 C.ar    1  UNL1        0.0196
     17 BR017       7.5172   -2.7317    0.4754 Br      1  UNL1       -0.0502
     18 C018        4.9572   -1.4720    0.4221 C.ar    1  UNL1       -0.0265
     19 C019        0.3175   -0.0914    0.0540 C.ar    1  UNL1        0.0439
     20 C020       -0.1478   -1.3549    0.5151 C.ar    1  UNL1       -0.0075
     21 H021       -0.5014   -4.1672    0.7234 H       1  UNL1        0.0660
     22 H022       -1.8099   -4.6639    1.8038 H       1  UNL1        0.0660
     23 H023       -0.6650   -3.4409    2.3697 H       1  UNL1        0.0660
     24 H024       -3.4786   -0.8962    0.1254 H       1  UNL1        0.0655
     25 H025       -2.6827    1.3047   -0.6512 H       1  UNL1        0.0640
     26 H026        1.3578    3.3476   -1.1228 H       1  UNL1        0.1048
     27 H027        2.5406   -1.4786   -0.2420 H       1  UNL1        0.1536
     28 H028        3.8339    1.6012    1.3375 H       1  UNL1        0.0636
     29 H029        6.2136    1.8942    1.8666 H       1  UNL1        0.0618
     30 H030        7.8196    0.0452    1.4926 H       1  UNL1        0.0629
     31 H031        4.6176   -2.4305    0.0400 H       1  UNL1        0.0647
     32 H032        0.5788   -2.0823    0.8616 H       1  UNL1        0.0662
@<TRIPOS>BOND
     1     1     2    1
     2     2     3    1
     3     3     4   ar
     4     4     5   ar
     5     5     6   ar
     6     6     7   ar
     7     7     8   ar
     8     8     9   ar
     9     9    10   ar
    10    10    11    1
    11    11    12    1
    12    12    13   ar
    13    13    14   ar
    14    14    15   ar
    15    15    16   ar
    16    16    17    1
    17    16    18   ar
    18    10    19   ar
    19    19    20   ar
    20    20     3   ar
    21    19     6   ar
    22    18    12   ar
    23     1    21    1
    24     1    22    1
    25     1    23    1
    26     4    24    1
    27     5    25    1
    28     8    26    1
    29    11    27    1
    30    13    28    1
    31    14    29    1
    32    15    30    1
    33    18    31    1
    34    20    32    1
