@<TRIPOS>MOLECULE
*****
 31 34 0 0 0
SMALL
GASTEIGER

@<TRIPOS>ATOM
      1 BR001       6.5119    2.6094    2.0640 Br      1  UNL1       -0.0502
      2 C002        5.8858    0.9555    1.3921 C.ar    1  UNL1        0.0196
      3 C003        6.7822   -0.0924    1.2021 C.ar    1  UNL1       -0.0476
      4 C004        6.3135   -1.3149    0.7292 C.ar    1  UNL1       -0.0590
      5 C005        4.9556   -1.4764    0.4381 C.ar    1  UNL1       -0.0404
      6 C006        4.0473   -0.4153    0.5895 C.ar    1  UNL1        0.0334
      7 N007        2.6751   -0.6497    0.3425 N.pl3   1  UNL1       -0.2988
      8 C008        1.6692    0.2888   -0.0178 C.ar    1  UNL1        0.1340
      9 N009        2.0312    1.5166   -0.4308 N.ar    1  UNL1       -0.2200
     10 C010        1.0516    2.3507   -0.7894 C.ar    1  UNL1        0.1187
     11 N011       -0.2585    2.0843   -0.7794 N.ar    1  UNL1       -0.2352
     12 C012       -0.6208    0.8723   -0.3570 C.ar    1  UNL1        0.0797
     13 C013       -1.9777    0.5713   -0.3255 C.ar    1  UNL1        0.0100
     14 C014       -2.3857   -0.6695    0.1145 C.ar    1  UNL1        0.1683
     15 C015       -1.4865   -1.6160    0.5256 C.ar    1  UNL1        0.1670
     16 C016       -0.1340   -1.3685    0.5129 C.ar    1  UNL1       -0.0037
     17 C017        0.3175   -0.1023    0.0554 C.ar    1  UNL1        0.0441
     18 O018       -2.0855   -2.7666    0.9272 O.3     1  UNL1       -0.4526
     19 C019       -3.4759   -2.4327    0.7270 C.3     1  UNL1        0.2332
     20 O020       -3.6713   -1.1024    0.2028 O.3     1  UNL1       -0.4525
     21 C021        4.5290    0.7951    1.1024 C.ar    1  UNL1       -0.0265
     22 H022        7.8376    0.0302    1.4288 H       1  UNL1        0.0629
     23 H023        7.0017   -2.1450    0.5919 H       1  UNL1        0.0618
     24 H024        4.6138   -2.4462    0.0846 H       1  UNL1        0.0636
     25 H025        2.5342   -1.5000   -0.1932 H       1  UNL1        0.1536
     26 H026        1.3486    3.3391   -1.1237 H       1  UNL1        0.1048
     27 H027       -2.7081    1.3090   -0.6411 H       1  UNL1        0.0677
     28 H028        0.5537   -2.1300    0.8644 H       1  UNL1        0.0663
     29 H029       -3.9125   -3.1539    0.0266 H       1  UNL1        0.1166
     30 H030       -3.9981   -2.5125    1.6874 H       1  UNL1        0.1166
     31 H031        3.8461    1.6195    1.2857 H       1  UNL1        0.0647
@<TRIPOS>BOND
     1     1     2    1
     2     2     3   ar
     3     3     4   ar
     4     4     5   ar
     5     5     6   ar
     6     6     7    1
     7     7     8    1
     8     8     9   ar
     9     9    10   ar
    10    10    11   ar
    11    11    12   ar
    12    12    13   ar
    13    13    14   ar
    14    14    15   ar
    15    15    16   ar
    16    16    17   ar
    17    15    18    1
    18    18    19    1
    19    19    20    1
    20     6    21   ar
    21    21     2   ar
    22    17     8   ar
    23    17    12   ar
    24    20    14    1
    25     3    22    1
    26     4    23    1
    27     5    24    1
    28     7    25    1
    29    10    26    1
    30    13    27    1
    31    16    28    1
    32    19    29    1
    33    19    30    1
    34    21    31    1
