@<TRIPOS>MOLECULE
*****
 33 35 0 0 0
SMALL
GASTEIGER

@<TRIPOS>ATOM
      1 O001       -3.1828   -3.2167    0.8528 O.2     1  UNL1        0.0414
      2 N002       -1.9739   -2.9687    0.9565 N.pl3   1  UNL1        0.0796
      3 O003       -1.1288   -3.7501    1.4151 O.co2   1  UNL1       -0.5760
      4 C004       -1.5072   -1.6503    0.5111 C.ar    1  UNL1        0.2739
      5 C005       -2.4292   -0.6781    0.1278 C.ar    1  UNL1        0.0176
      6 C006       -1.9639    0.5713   -0.2954 C.ar    1  UNL1       -0.0292
      7 C007       -0.6082    0.8787   -0.3435 C.ar    1  UNL1        0.0764
      8 N008       -0.2506    2.0908   -0.7674 N.ar    1  UNL1       -0.2353
      9 C009        1.0602    2.3490   -0.8130 C.ar    1  UNL1        0.1187
     10 N010        2.0400    1.5118   -0.4644 N.ar    1  UNL1       -0.2200
     11 C011        1.6765    0.2948   -0.0233 C.ar    1  UNL1        0.1341
     12 N012        2.6778   -0.6244    0.3933 N.pl3   1  UNL1       -0.2988
     13 C013        4.0694   -0.5755    0.1521 C.ar    1  UNL1        0.0329
     14 C014        4.6214    0.0254   -0.9843 C.ar    1  UNL1       -0.0405
     15 C015        5.9981   -0.0038   -1.2222 C.ar    1  UNL1       -0.0595
     16 C016        6.8467   -0.6631   -0.3367 C.ar    1  UNL1       -0.0500
     17 C017        6.3220   -1.3159    0.7854 C.ar    1  UNL1        0.0566
     18 C018        7.2299   -2.0309    1.7534 C.3     1  UNL1        0.4175
     19 F019        7.6419   -1.2233    2.7691 F       1  UNL1       -0.1659
     20 F020        8.3645   -2.5118    1.1728 F       1  UNL1       -0.1659
     21 F021        6.6350   -3.1032    2.3482 F       1  UNL1       -0.1659
     22 C022        4.9344   -1.2682    1.0145 C.ar    1  UNL1       -0.0289
     23 C023        0.3232   -0.0950    0.0517 C.ar    1  UNL1        0.0468
     24 C024       -0.1368   -1.3706    0.4740 C.ar    1  UNL1        0.0280
     25 H025       -3.5007   -0.8674    0.1462 H       1  UNL1        0.0686
     26 H026       -2.6838    1.3297   -0.6008 H       1  UNL1        0.0641
     27 H027        1.3561    3.3318   -1.1642 H       1  UNL1        0.1048
     28 H028        2.4767   -0.9235    1.3422 H       1  UNL1        0.1536
     29 H029        3.9832    0.5255   -1.7083 H       1  UNL1        0.0636
     30 H030        6.4027    0.4855   -2.1049 H       1  UNL1        0.0618
     31 H031        7.9178   -0.6768   -0.5323 H       1  UNL1        0.0623
     32 H032        4.5305   -1.7823    1.8857 H       1  UNL1        0.0642
     33 H033        0.5823   -2.1391    0.7523 H       1  UNL1        0.0693
@<TRIPOS>BOND
     1     1     2    2
     2     2     3    1
     3     2     4    1
     4     4     5   ar
     5     5     6   ar
     6     6     7   ar
     7     7     8   ar
     8     8     9   ar
     9     9    10   ar
    10    10    11   ar
    11    11    12    1
    12    12    13    1
    13    13    14   ar
    14    14    15   ar
    15    15    16   ar
    16    16    17   ar
    17    17    18    1
    18    18    19    1
    19    18    20    1
    20    18    21    1
    21    17    22   ar
    22    11    23   ar
    23    23    24   ar
    24    24     4   ar
    25    23     7   ar
    26    22    13   ar
    27     5    25    1
    28     6    26    1
    29     9    27    1
    30    12    28    1
    31    14    29    1
    32    15    30    1
    33    16    31    1
    34    22    32    1
    35    24    33    1
