@<TRIPOS>MOLECULE
*****
 40 42 0 0 0
SMALL
GASTEIGER

@<TRIPOS>ATOM
      1 C001        7.9469    2.4453    1.0866 C.3     1  UNL1        0.0788
      2 O002        6.5434    2.2463    0.9795 O.3     1  UNL1       -0.4950
      3 C003        6.1081    0.9607    0.8044 C.ar    1  UNL1        0.1219
      4 C004        6.9165   -0.1726    0.7469 C.ar    1  UNL1       -0.0185
      5 C005        6.3366   -1.4309    0.5806 C.ar    1  UNL1       -0.0381
      6 C006        4.9494   -1.5532    0.4647 C.ar    1  UNL1        0.0623
      7 CL007       4.2910   -3.1435    0.2650 Cl      1  UNL1       -0.0816
      8 C008        4.1081   -0.4236    0.4980 C.ar    1  UNL1        0.0544
      9 N009        2.7078   -0.5835    0.4069 N.pl3   1  UNL1       -0.2975
     10 C010        1.6891    0.2949   -0.0337 C.ar    1  UNL1        0.1374
     11 N011        2.0383    1.5207   -0.4690 N.ar    1  UNL1       -0.2199
     12 C012        1.0534    2.3471   -0.8152 C.ar    1  UNL1        0.1187
     13 N013       -0.2520    2.0763   -0.7647 N.ar    1  UNL1       -0.2350
     14 C014       -0.5980    0.8603   -0.3370 C.ar    1  UNL1        0.0830
     15 C015       -1.9570    0.5812   -0.2852 C.ar    1  UNL1        0.0064
     16 C016       -2.4384   -0.6560    0.1322 C.ar    1  UNL1        0.1256
     17 O017       -3.7534   -1.0234    0.2133 O.3     1  UNL1       -0.4949
     18 C018       -4.7214   -0.0435   -0.1445 C.3     1  UNL1        0.0788
     19 C019       -1.5341   -1.6459    0.5022 C.ar    1  UNL1        0.0226
     20 C020       -0.1596   -1.3978    0.4659 C.ar    1  UNL1        0.1360
     21 O021        0.7834   -2.3497    0.7774 O.3     1  UNL1       -0.4942
     22 C022        0.3353   -3.5535    1.3914 C.3     1  UNL1        0.0788
     23 C023        0.3320   -0.1191    0.0486 C.ar    1  UNL1        0.0822
     24 C024        4.7172    0.8251    0.6855 C.ar    1  UNL1        0.0027
     25 H025        8.4622    2.1254    0.1749 H       1  UNL1        0.0660
     26 H026        8.1241    3.5180    1.2100 H       1  UNL1        0.0660
     27 H027        8.3510    1.9376    1.9687 H       1  UNL1        0.0660
     28 H028        7.9959   -0.1134    0.8350 H       1  UNL1        0.0654
     29 H029        6.9704   -2.3129    0.5438 H       1  UNL1        0.0634
     30 H030        2.4357   -1.5540    0.2489 H       1  UNL1        0.1536
     31 H031        1.3398    3.3321   -1.1665 H       1  UNL1        0.1048
     32 H032       -2.6354    1.3729   -0.5893 H       1  UNL1        0.0676
     33 H033       -4.6194    0.2454   -1.1957 H       1  UNL1        0.0660
     34 H034       -5.7120   -0.4905   -0.0166 H       1  UNL1        0.0660
     35 H035       -4.6618    0.8290    0.5144 H       1  UNL1        0.0660
     36 H036       -1.9364   -2.6077    0.8038 H       1  UNL1        0.0691
     37 H037       -0.2316   -3.3476    2.3054 H       1  UNL1        0.0660
     38 H038        1.2199   -4.1330    1.6725 H       1  UNL1        0.0660
     39 H039       -0.2472   -4.1568    0.6880 H       1  UNL1        0.0660
     40 H040        4.1101    1.7233    0.7595 H       1  UNL1        0.0673
@<TRIPOS>BOND
     1     1     2    1
     2     2     3    1
     3     3     4   ar
     4     4     5   ar
     5     5     6   ar
     6     6     7    1
     7     6     8   ar
     8     8     9    1
     9     9    10    1
    10    10    11   ar
    11    11    12   ar
    12    12    13   ar
    13    13    14   ar
    14    14    15   ar
    15    15    16   ar
    16    16    17    1
    17    17    18    1
    18    16    19   ar
    19    19    20   ar
    20    20    21    1
    21    21    22    1
    22    20    23   ar
    23     8    24   ar
    24    24     3   ar
    25    23    10   ar
    26    23    14   ar
    27     1    25    1
    28     1    26    1
    29     1    27    1
    30     4    28    1
    31     5    29    1
    32     9    30    1
    33    12    31    1
    34    15    32    1
    35    18    33    1
    36    18    34    1
    37    18    35    1
    38    19    36    1
    39    22    37    1
    40    22    38    1
    41    22    39    1
    42    24    40    1
