@<TRIPOS>MOLECULE
*****
 33 35 0 0 0
SMALL
GASTEIGER

@<TRIPOS>ATOM
      1 O001       -4.2049   -2.0939    0.5207 O.2     1  UNL1        0.0414
      2 N002       -3.8522   -0.9685    0.1410 N.pl3   1  UNL1        0.0797
      3 O003       -4.6269   -0.0729   -0.2212 O.co2   1  UNL1       -0.5760
      4 C004       -2.4136   -0.6798    0.1170 C.ar    1  UNL1        0.2752
      5 C005       -1.5051   -1.6508    0.5391 C.ar    1  UNL1        0.0164
      6 C006       -0.1430   -1.3566    0.5078 C.ar    1  UNL1       -0.0429
      7 C007        0.3206   -0.0946    0.0516 C.ar    1  UNL1        0.0409
      8 C008        1.6744    0.2960   -0.0188 C.ar    1  UNL1        0.1339
      9 N009        2.6777   -0.6461    0.3392 N.pl3   1  UNL1       -0.2989
     10 C010        4.0449   -0.4110    0.6086 C.ar    1  UNL1        0.0329
     11 C011        4.5163    0.7936    1.1413 C.ar    1  UNL1       -0.0405
     12 C012        5.8652    0.9637    1.4645 C.ar    1  UNL1       -0.0595
     13 C013        6.7652   -0.0830    1.2817 C.ar    1  UNL1       -0.0500
     14 C014        6.3213   -1.3120    0.7788 C.ar    1  UNL1        0.0566
     15 C015        7.2766   -2.4668    0.6170 C.3     1  UNL1        0.4175
     16 F016        7.3318   -3.2521    1.7278 F       1  UNL1       -0.1659
     17 F017        6.9374   -3.2972   -0.4093 F       1  UNL1       -0.1659
     18 F018        8.5577   -2.0760    0.3694 F       1  UNL1       -0.1659
     19 C019        4.9581   -1.4680    0.4666 C.ar    1  UNL1       -0.0289
     20 N020        2.0375    1.5234   -0.4305 N.ar    1  UNL1       -0.2200
     21 C021        1.0586    2.3565   -0.7911 C.ar    1  UNL1        0.1187
     22 N022       -0.2508    2.0858   -0.7803 N.ar    1  UNL1       -0.2351
     23 C023       -0.6105    0.8737   -0.3580 C.ar    1  UNL1        0.0824
     24 C024       -1.9642    0.5705   -0.3251 C.ar    1  UNL1        0.0417
     25 H025       -1.8350   -2.6246    0.8965 H       1  UNL1        0.0685
     26 H026        0.5601   -2.1098    0.8591 H       1  UNL1        0.0627
     27 H027        2.5484   -1.4845   -0.2179 H       1  UNL1        0.1536
     28 H028        3.8344    1.6209    1.3208 H       1  UNL1        0.0636
     29 H029        6.2067    1.9140    1.8675 H       1  UNL1        0.0618
     30 H030        7.8128    0.0609    1.5419 H       1  UNL1        0.0623
     31 H031        4.6130   -2.4340    0.1006 H       1  UNL1        0.0642
     32 H032        1.3537    3.3449   -1.1268 H       1  UNL1        0.1048
     33 H033       -2.6703    1.3336   -0.6497 H       1  UNL1        0.0707
@<TRIPOS>BOND
     1     1     2    2
     2     2     3    1
     3     2     4    1
     4     4     5   ar
     5     5     6   ar
     6     6     7   ar
     7     7     8   ar
     8     8     9    1
     9     9    10    1
    10    10    11   ar
    11    11    12   ar
    12    12    13   ar
    13    13    14   ar
    14    14    15    1
    15    15    16    1
    16    15    17    1
    17    15    18    1
    18    14    19   ar
    19     8    20   ar
    20    20    21   ar
    21    21    22   ar
    22    22    23   ar
    23    23    24   ar
    24    24     4   ar
    25    23     7   ar
    26    19    10   ar
    27     5    25    1
    28     6    26    1
    29     9    27    1
    30    11    28    1
    31    12    29    1
    32    13    30    1
    33    19    31    1
    34    21    32    1
    35    24    33    1
