@<TRIPOS>MOLECULE
*****
 42 45 0 0 0
SMALL
GASTEIGER

@<TRIPOS>ATOM
      1 C001       -4.7177   -0.0496   -0.1561 C.3     1  UNL1        0.0790
      2 O002       -3.7528   -1.0264    0.2095 O.3     1  UNL1       -0.4914
      3 C003       -2.4279   -0.6751    0.1350 C.ar    1  UNL1        0.1635
      4 C004       -1.9626    0.5751   -0.2880 C.ar    1  UNL1        0.0098
      5 C005       -0.6082    0.8779   -0.3431 C.ar    1  UNL1        0.0797
      6 N006       -0.2483    2.0918   -0.7682 N.ar    1  UNL1       -0.2352
      7 C007        1.0627    2.3481   -0.8165 C.ar    1  UNL1        0.1187
      8 N008        2.0425    1.5116   -0.4685 N.ar    1  UNL1       -0.2200
      9 C009        1.6749    0.2961   -0.0251 C.ar    1  UNL1        0.1340
     10 N010        2.6729   -0.6204    0.4065 N.pl3   1  UNL1       -0.2988
     11 C011        4.0724   -0.5665    0.1927 C.ar    1  UNL1        0.0345
     12 C012        4.6373    0.0239   -0.9485 C.ar    1  UNL1       -0.0384
     13 C013        6.0190    0.0185   -1.1947 C.ar    1  UNL1       -0.0345
     14 C014        6.8156   -0.6342   -0.2567 C.ar    1  UNL1        0.0663
     15 N015        8.1679   -0.8396   -0.1704 N.ar    1  UNL1       -0.3420
     16 C016        8.4211   -1.5686    0.9659 C.ar    1  UNL1        0.1051
     17 C017        9.7924   -1.9669    1.3590 C.3     1  UNL1       -0.0064
     18 N018        7.3046   -1.8395    1.6095 N.ar    1  UNL1       -0.2327
     19 C019        6.3013   -1.2643    0.8675 C.ar    1  UNL1        0.0908
     20 C020        4.9162   -1.2458    1.0921 C.ar    1  UNL1       -0.0130
     21 C021        0.3208   -0.0937    0.0467 C.ar    1  UNL1        0.0441
     22 C022       -0.1407   -1.3695    0.4636 C.ar    1  UNL1       -0.0038
     23 C023       -1.5046   -1.6638    0.5085 C.ar    1  UNL1        0.1623
     24 O024       -2.0293   -2.8676    0.9027 O.3     1  UNL1       -0.4914
     25 C025       -1.1252   -3.9289    1.1756 C.3     1  UNL1        0.0790
     26 H026       -4.6619    0.8257    0.4993 H       1  UNL1        0.0660
     27 H027       -5.7090   -0.4957   -0.0304 H       1  UNL1        0.0660
     28 H028       -4.6124    0.2346   -1.2082 H       1  UNL1        0.0660
     29 H029       -2.6520    1.3563   -0.5929 H       1  UNL1        0.0677
     30 H030        1.3585    3.3302   -1.1689 H       1  UNL1        0.1048
     31 H031        2.4623   -0.9034    1.3587 H       1  UNL1        0.1536
     32 H032        3.9941    0.5040   -1.6831 H       1  UNL1        0.0637
     33 H033        6.4321    0.4926   -2.0778 H       1  UNL1        0.0639
     34 H034        8.8589   -0.5140   -0.8301 H       1  UNL1        0.1671
     35 H035       10.2489   -2.5914    0.5850 H       1  UNL1        0.0307
     36 H036        9.7749   -2.5385    2.2920 H       1  UNL1        0.0307
     37 H037       10.4210   -1.0843    1.5117 H       1  UNL1        0.0307
     38 H038        4.5274   -1.7549    1.9658 H       1  UNL1        0.0658
     39 H039        0.5916   -2.1225    0.7349 H       1  UNL1        0.0663
     40 H040       -0.5152   -4.1660    0.2976 H       1  UNL1        0.0660
     41 H041       -0.4986   -3.6980    2.0431 H       1  UNL1        0.0660
     42 H042       -1.7159   -4.8171    1.4196 H       1  UNL1        0.0660
@<TRIPOS>BOND
     1     1     2    1
     2     2     3    1
     3     3     4   ar
     4     4     5   ar
     5     5     6   ar
     6     6     7   ar
     7     7     8   ar
     8     8     9   ar
     9     9    10    1
    10    10    11    1
    11    11    12   ar
    12    12    13   ar
    13    13    14   ar
    14    14    15   ar
    15    15    16   ar
    16    16    17    1
    17    16    18   ar
    18    18    19   ar
    19    19    20   ar
    20     9    21   ar
    21    21    22   ar
    22    22    23   ar
    23    23    24    1
    24    24    25    1
    25    23     3   ar
    26    21     5   ar
    27    20    11   ar
    28    19    14   ar
    29     1    26    1
    30     1    27    1
    31     1    28    1
    32     4    29    1
    33     7    30    1
    34    10    31    1
    35    12    32    1
    36    13    33    1
    37    15    34    1
    38    17    35    1
    39    17    36    1
    40    17    37    1
    41    20    38    1
    42    22    39    1
    43    25    40    1
    44    25    41    1
    45    25    42    1
