@<TRIPOS>MOLECULE
*****
 44 46 0 0 0
SMALL
GASTEIGER

@<TRIPOS>ATOM
      1 C001        6.7578    0.0285   -1.2287 C.3     1  UNL1       -0.0652
      2 C002        6.4079   -1.1094   -0.2838 C.3     1  UNL1       -0.0539
      3 C003        4.9030   -1.3801   -0.1742 C.3     1  UNL1       -0.0306
      4 C004        4.0559   -0.1999    0.3581 C.3     1  UNL1        0.0472
      5 N005        2.6505   -0.6376    0.3735 N.pl3   1  UNL1       -0.3217
      6 C006        1.6665    0.3010   -0.0055 C.ar    1  UNL1        0.1302
      7 N007        2.0564    1.5037   -0.4530 N.ar    1  UNL1       -0.2203
      8 C008        1.0962    2.3507   -0.8126 C.ar    1  UNL1        0.1187
      9 N009       -0.2192    2.1137   -0.7809 N.ar    1  UNL1       -0.2345
     10 C010       -0.6329    0.9017   -0.3544 C.ar    1  UNL1        0.0881
     11 C011       -1.9997    0.5528   -0.2990 C.ar    1  UNL1        0.0625
     12 C012       -3.0996    1.4833   -0.7048 C.2     1  UNL1        0.2436
     13 N013       -2.7675    2.6731   -1.2803 N.am    1  UNL1       -0.3253
     14 O014       -4.2799    1.1958   -0.5351 O.2     1  UNL1       -0.2703
     15 C015       -2.4169   -0.7171    0.1435 C.ar    1  UNL1       -0.0475
     16 C016       -1.4872   -1.6701    0.5229 C.ar    1  UNL1       -0.0603
     17 C017       -0.1371   -1.3513    0.4682 C.ar    1  UNL1       -0.0492
     18 C018        0.3050   -0.0693    0.0483 C.ar    1  UNL1        0.0409
     19 C019        4.4409    0.2603    1.7603 C.ar    1  UNL1       -0.0273
     20 C020        4.6643   -0.6443    2.8122 C.ar    1  UNL1       -0.0568
     21 C021        4.9849   -0.1863    4.0936 C.ar    1  UNL1       -0.0614
     22 C022        5.0749    1.1809    4.3452 C.ar    1  UNL1       -0.0617
     23 C023        4.8424    2.0905    3.3177 C.ar    1  UNL1       -0.0614
     24 C024        4.5277    1.6348    2.0348 C.ar    1  UNL1       -0.0568
     25 H025        6.4123    0.9914   -0.8406 H       1  UNL1        0.0230
     26 H026        6.3118   -0.1268   -2.2164 H       1  UNL1        0.0230
     27 H027        7.8443    0.0918   -1.3562 H       1  UNL1        0.0230
     28 H028        6.8342   -0.9063    0.7035 H       1  UNL1        0.0263
     29 H029        6.8954   -2.0218   -0.6471 H       1  UNL1        0.0263
     30 H030        4.5262   -1.6593   -1.1678 H       1  UNL1        0.0286
     31 H031        4.7556   -2.2703    0.4494 H       1  UNL1        0.0286
     32 H032        4.2112    0.6226   -0.3491 H       1  UNL1        0.0548
     33 H033        2.4073   -1.0027    1.2905 H       1  UNL1        0.1481
     34 H034        1.4112    3.3306   -1.1578 H       1  UNL1        0.1048
     35 H035       -3.5010    3.3328   -1.4891 H       1  UNL1        0.1453
     36 H036       -1.7975    2.9718   -1.3196 H       1  UNL1        0.1453
     37 H037       -3.4775   -0.9653    0.1777 H       1  UNL1        0.0626
     38 H038       -1.8114   -2.6535    0.8514 H       1  UNL1        0.0618
     39 H039        0.5824   -2.1192    0.7467 H       1  UNL1        0.0625
     40 H040        4.5887   -1.7167    2.6485 H       1  UNL1        0.0621
     41 H041        5.1636   -0.8959    4.8965 H       1  UNL1        0.0618
     42 H042        5.3223    1.5370    5.3409 H       1  UNL1        0.0618
     43 H043        4.9046    3.1577    3.5138 H       1  UNL1        0.0618
     44 H044        4.3396    2.3613    1.2455 H       1  UNL1        0.0621
@<TRIPOS>BOND
     1     1     2    1
     2     2     3    1
     3     3     4    1
     4     4     5    1
     5     5     6    1
     6     6     7   ar
     7     7     8   ar
     8     8     9   ar
     9     9    10   ar
    10    10    11   ar
    11    11    12    1
    12    12    13   am
    13    12    14    2
    14    11    15   ar
    15    15    16   ar
    16    16    17   ar
    17    17    18   ar
    18     4    19    1
    19    19    20   ar
    20    20    21   ar
    21    21    22   ar
    22    22    23   ar
    23    23    24   ar
    24    18     6   ar
    25    24    19   ar
    26    18    10   ar
    27     1    25    1
    28     1    26    1
    29     1    27    1
    30     2    28    1
    31     2    29    1
    32     3    30    1
    33     3    31    1
    34     4    32    1
    35     5    33    1
    36     8    34    1
    37    13    35    1
    38    13    36    1
    39    15    37    1
    40    16    38    1
    41    17    39    1
    42    20    40    1
    43    21    41    1
    44    22    42    1
    45    23    43    1
    46    24    44    1
