@<TRIPOS>MOLECULE
*****
 46 48 0 0 0
SMALL
GASTEIGER

@<TRIPOS>ATOM
      1 C001       11.2285    4.5398   -1.3819 C.3     1  UNL1       -0.0622
      2 C002       10.6967    3.2563   -0.7694 C.3     1  UNL1       -0.0215
      3 C003       10.3741    3.4293    0.7125 C.3     1  UNL1        0.0893
      4 O004        9.9184    2.1983    1.2737 O.3     1  UNL1       -0.4920
      5 C005        8.5783    1.9304    1.2695 C.ar    1  UNL1        0.1205
      6 C006        8.2136    0.7915    1.9918 C.ar    1  UNL1       -0.0197
      7 C007        6.8777    0.3910    2.0720 C.ar    1  UNL1       -0.0551
      8 C008        5.8822    1.1293    1.4249 C.ar    1  UNL1       -0.0457
      9 C009        4.4378    0.6945    1.4831 C.3     1  UNL1       -0.0121
     10 C010        4.0571   -0.1628    0.2699 C.3     1  UNL1        0.0144
     11 N011        2.6709   -0.6333    0.3553 N.pl3   1  UNL1       -0.3282
     12 C012        1.6719    0.2935   -0.0241 C.ar    1  UNL1        0.1297
     13 N013        2.0427    1.5184   -0.4342 N.ar    1  UNL1       -0.2203
     14 C014        1.0633    2.3539   -0.7950 C.ar    1  UNL1        0.1187
     15 N015       -0.2470    2.0906   -0.7886 N.ar    1  UNL1       -0.2353
     16 C016       -0.6078    0.8775   -0.3618 C.ar    1  UNL1        0.0761
     17 C017       -1.9589    0.5668   -0.3055 C.ar    1  UNL1       -0.0338
     18 C018       -2.4126   -0.6800    0.1392 C.ar    1  UNL1       -0.0390
     19 C019       -1.5080   -1.6693    0.5080 C.ar    1  UNL1        0.0253
     20 N020       -1.9574   -2.8632    1.0753 N.pl3   1  UNL1       -0.3579
     21 C021       -0.1506   -1.3496    0.5097 C.ar    1  UNL1       -0.0286
     22 C022        0.3178   -0.0904    0.0479 C.ar    1  UNL1        0.0418
     23 C023        6.2499    2.2645    0.6921 C.ar    1  UNL1       -0.0551
     24 C024        7.5894    2.6627    0.6148 C.ar    1  UNL1       -0.0197
     25 H025       12.1450    4.8646   -0.8790 H       1  UNL1        0.0231
     26 H026       11.4582    4.3880   -2.4411 H       1  UNL1        0.0231
     27 H027       10.4906    5.3448   -1.3062 H       1  UNL1        0.0231
     28 H028       11.4343    2.4537   -0.8900 H       1  UNL1        0.0295
     29 H029        9.8076    2.9289   -1.3193 H       1  UNL1        0.0295
     30 H030       11.2973    3.6850    1.2463 H       1  UNL1        0.0696
     31 H031        9.6822    4.2576    0.9042 H       1  UNL1        0.0696
     32 H032        8.9793    0.2108    2.5005 H       1  UNL1        0.0654
     33 H033        6.6237   -0.4985    2.6436 H       1  UNL1        0.0621
     34 H034        3.8013    1.5843    1.5592 H       1  UNL1        0.0328
     35 H035        4.2595    0.1306    2.4081 H       1  UNL1        0.0328
     36 H036        4.7005   -1.0522    0.2577 H       1  UNL1        0.0465
     37 H037        4.2530    0.3532   -0.6789 H       1  UNL1        0.0465
     38 H038        2.5376   -1.4732   -0.2027 H       1  UNL1        0.1475
     39 H039        1.3615    3.3420   -1.1278 H       1  UNL1        0.1048
     40 H040       -2.6851    1.3212   -0.6000 H       1  UNL1        0.0639
     41 H041       -3.4826   -0.8608    0.1980 H       1  UNL1        0.0637
     42 H042       -2.8841   -3.1482    0.7736 H       1  UNL1        0.1423
     43 H043       -1.2877   -3.6252    1.0411 H       1  UNL1        0.1423
     44 H044        0.5632   -2.0779    0.8869 H       1  UNL1        0.0644
     45 H045        5.4911    2.8471    0.1727 H       1  UNL1        0.0621
     46 H046        7.8212    3.5431    0.0262 H       1  UNL1        0.0654
@<TRIPOS>BOND
     1     1     2    1
     2     2     3    1
     3     3     4    1
     4     4     5    1
     5     5     6   ar
     6     6     7   ar
     7     7     8   ar
     8     8     9    1
     9     9    10    1
    10    10    11    1
    11    11    12    1
    12    12    13   ar
    13    13    14   ar
    14    14    15   ar
    15    15    16   ar
    16    16    17   ar
    17    17    18   ar
    18    18    19   ar
    19    19    20    1
    20    19    21   ar
    21    21    22   ar
    22     8    23   ar
    23    23    24   ar
    24    24     5   ar
    25    22    12   ar
    26    22    16   ar
    27     1    25    1
    28     1    26    1
    29     1    27    1
    30     2    28    1
    31     2    29    1
    32     3    30    1
    33     3    31    1
    34     6    32    1
    35     7    33    1
    36     9    34    1
    37     9    35    1
    38    10    36    1
    39    10    37    1
    40    11    38    1
    41    14    39    1
    42    17    40    1
    43    18    41    1
    44    20    42    1
    45    20    43    1
    46    21    44    1
    47    23    45    1
    48    24    46    1
