@<TRIPOS>MOLECULE
*****
 33 35 0 0 0
SMALL
GASTEIGER

@<TRIPOS>ATOM
      1 N001       -3.8020   -0.9245    0.2564 N.pl3   1  UNL1       -0.3579
      2 C002       -2.4313   -0.6944    0.0987 C.ar    1  UNL1        0.0266
      3 C003       -1.5079   -1.6428    0.5242 C.ar    1  UNL1       -0.0403
      4 C004       -0.1426   -1.3601    0.4798 C.ar    1  UNL1       -0.0475
      5 C005        0.3231   -0.0936    0.0478 C.ar    1  UNL1        0.0405
      6 C006        1.6775    0.2944   -0.0297 C.ar    1  UNL1        0.1339
      7 N007        2.6772   -0.6255    0.3941 N.pl3   1  UNL1       -0.2989
      8 C008        4.0717   -0.5693    0.1758 C.ar    1  UNL1        0.0329
      9 C009        4.6390    0.0347   -0.9512 C.ar    1  UNL1       -0.0405
     10 C010        6.0187    0.0061   -1.1710 C.ar    1  UNL1       -0.0595
     11 C011        6.8558   -0.6523   -0.2740 C.ar    1  UNL1       -0.0500
     12 C012        6.3180   -1.2933    0.8487 C.ar    1  UNL1        0.0566
     13 C013        7.2081   -2.0464    1.8037 C.3     1  UNL1        0.4175
     14 F014        6.7360   -2.0493    3.0824 F       1  UNL1       -0.1659
     15 F015        7.3494   -3.3555    1.4568 F       1  UNL1       -0.1659
     16 F016        8.4706   -1.5398    1.8766 F       1  UNL1       -0.1659
     17 C017        4.9257   -1.2611    1.0496 C.ar    1  UNL1       -0.0289
     18 N018        2.0443    1.5105   -0.4720 N.ar    1  UNL1       -0.2200
     19 C019        1.0625    2.3490   -0.8123 C.ar    1  UNL1        0.1187
     20 N020       -0.2487    2.0944   -0.7603 N.ar    1  UNL1       -0.2352
     21 C021       -0.6086    0.8781   -0.3391 C.ar    1  UNL1        0.0777
     22 C022       -1.9639    0.5681   -0.2802 C.ar    1  UNL1       -0.0149
     23 H023       -4.3914   -0.3426   -0.3321 H       1  UNL1        0.1423
     24 H024       -4.0688   -1.9035    0.2182 H       1  UNL1        0.1423
     25 H025       -1.8404   -2.6115    0.8882 H       1  UNL1        0.0636
     26 H026        0.5570   -2.1360    0.7806 H       1  UNL1        0.0626
     27 H027        2.4581   -0.9209    1.3399 H       1  UNL1        0.1536
     28 H028        4.0091    0.5332   -1.6836 H       1  UNL1        0.0636
     29 H029        6.4337    0.4927   -2.0502 H       1  UNL1        0.0618
     30 H030        7.9287   -0.6714   -0.4591 H       1  UNL1        0.0623
     31 H031        4.5087   -1.7829    1.9098 H       1  UNL1        0.0642
     32 H032        1.3575    3.3323   -1.1622 H       1  UNL1        0.1048
     33 H033       -2.6767    1.3443   -0.5497 H       1  UNL1        0.0657
@<TRIPOS>BOND
     1     1     2    1
     2     2     3   ar
     3     3     4   ar
     4     4     5   ar
     5     5     6   ar
     6     6     7    1
     7     7     8    1
     8     8     9   ar
     9     9    10   ar
    10    10    11   ar
    11    11    12   ar
    12    12    13    1
    13    13    14    1
    14    13    15    1
    15    13    16    1
    16    12    17   ar
    17     6    18   ar
    18    18    19   ar
    19    19    20   ar
    20    20    21   ar
    21    21    22   ar
    22    22     2   ar
    23    21     5   ar
    24    17     8   ar
    25     1    23    1
    26     1    24    1
    27     3    25    1
    28     4    26    1
    29     7    27    1
    30     9    28    1
    31    10    29    1
    32    11    30    1
    33    17    31    1
    34    19    32    1
    35    22    33    1
