@<TRIPOS>MOLECULE
*****
 40 42 0 0 0
SMALL
GASTEIGER

@<TRIPOS>ATOM
      1 C001       -1.1103   -3.9551    1.1202 C.3     1  UNL1        0.0790
      2 O002       -2.0194   -2.8829    0.9092 O.3     1  UNL1       -0.4913
      3 C003       -1.5013   -1.6797    0.5149 C.ar    1  UNL1        0.1660
      4 C004       -0.1437   -1.3679    0.4592 C.ar    1  UNL1       -0.0036
      5 C005        0.3094   -0.0840    0.0412 C.ar    1  UNL1        0.0477
      6 C006        1.6663    0.2987   -0.0233 C.ar    1  UNL1        0.1342
      7 N007        2.6596   -0.6234    0.4018 N.pl3   1  UNL1       -0.2966
      8 C008        4.0624   -0.5441    0.2190 C.ar    1  UNL1        0.0710
      9 C009        4.6518    0.0318   -0.9144 C.ar    1  UNL1       -0.0375
     10 C010        6.0426    0.0290   -1.0850 C.ar    1  UNL1       -0.0571
     11 C011        6.8638   -0.5719   -0.1326 C.ar    1  UNL1       -0.0235
     12 C012        6.2880   -1.1737    0.9791 C.ar    1  UNL1        0.1602
     13 F013        7.0755   -1.7659    1.8878 F       1  UNL1       -0.2024
     14 C014        4.9075   -1.1697    1.1480 C.ar    1  UNL1        0.1794
     15 F015        4.3663   -1.7674    2.2233 F       1  UNL1       -0.2005
     16 N016        2.0507    1.5100   -0.4617 N.ar    1  UNL1       -0.2200
     17 C017        1.0826    2.3563   -0.8124 C.ar    1  UNL1        0.1189
     18 N018       -0.2274    2.1070   -0.7763 N.ar    1  UNL1       -0.2315
     19 C019       -0.6178    0.8924   -0.3527 C.ar    1  UNL1        0.1214
     20 C020       -1.9773    0.5599   -0.2981 C.ar    1  UNL1        0.1913
     21 O021       -2.9256    1.5077   -0.6331 O.3     1  UNL1       -0.4894
     22 C022       -3.1974    1.4449   -2.0329 C.3     1  UNL1        0.0791
     23 C023       -2.4195   -0.6912    0.1585 C.ar    1  UNL1        0.2057
     24 O024       -3.7660   -0.9725    0.1689 O.3     1  UNL1       -0.4885
     25 C025       -4.3274   -0.6053    1.4288 C.3     1  UNL1        0.0791
     26 H026       -0.5236   -4.1618    0.2189 H       1  UNL1        0.0660
     27 H027       -1.6963   -4.8504    1.3488 H       1  UNL1        0.0660
     28 H028       -0.4607   -3.7545    1.9782 H       1  UNL1        0.0660
     29 H029        0.5958   -2.1158    0.7282 H       1  UNL1        0.0663
     30 H030        2.4512   -0.9288    1.3514 H       1  UNL1        0.1537
     31 H031        4.0328    0.4869   -1.6842 H       1  UNL1        0.0637
     32 H032        6.4785    0.4922   -1.9674 H       1  UNL1        0.0619
     33 H033        7.9423   -0.5821   -0.2542 H       1  UNL1        0.0647
     34 H034        1.3867    3.3382   -1.1577 H       1  UNL1        0.1048
     35 H035       -3.5853    0.4613   -2.3200 H       1  UNL1        0.0660
     36 H036       -3.9674    2.1892   -2.2571 H       1  UNL1        0.0660
     37 H037       -2.3093    1.6896   -2.6252 H       1  UNL1        0.0660
     38 H038       -4.2349    0.4712    1.6089 H       1  UNL1        0.0660
     39 H039       -3.8683   -1.1679    2.2491 H       1  UNL1        0.0660
     40 H040       -5.3928   -0.8528    1.4046 H       1  UNL1        0.0660
@<TRIPOS>BOND
     1     1     2    1
     2     2     3    1
     3     3     4   ar
     4     4     5   ar
     5     5     6   ar
     6     6     7    1
     7     7     8    1
     8     8     9   ar
     9     9    10   ar
    10    10    11   ar
    11    11    12   ar
    12    12    13    1
    13    12    14   ar
    14    14    15    1
    15     6    16   ar
    16    16    17   ar
    17    17    18   ar
    18    18    19   ar
    19    19    20   ar
    20    20    21    1
    21    21    22    1
    22    20    23   ar
    23    23    24    1
    24    24    25    1
    25    23     3   ar
    26    19     5   ar
    27    14     8   ar
    28     1    26    1
    29     1    27    1
    30     1    28    1
    31     4    29    1
    32     7    30    1
    33     9    31    1
    34    10    32    1
    35    11    33    1
    36    17    34    1
    37    22    35    1
    38    22    36    1
    39    22    37    1
    40    25    38    1
    41    25    39    1
    42    25    40    1
