@<TRIPOS>MOLECULE
*****
 34 36 0 0 0
SMALL
GASTEIGER

@<TRIPOS>ATOM
      1 C001       -4.7144   -0.0037    0.0767 C.3     1  UNL1        0.0789
      2 O002       -3.7479   -1.0328    0.2493 O.3     1  UNL1       -0.4932
      3 C003       -2.4260   -0.6682    0.1528 C.ar    1  UNL1        0.1427
      4 C004       -1.9653    0.5789   -0.2789 C.ar    1  UNL1        0.0080
      5 C005       -0.6093    0.8766   -0.3459 C.ar    1  UNL1        0.0796
      6 N006       -0.2492    2.0886   -0.7756 N.ar    1  UNL1       -0.2352
      7 C007        1.0621    2.3451   -0.8215 C.ar    1  UNL1        0.1187
      8 N008        2.0421    1.5113   -0.4665 N.ar    1  UNL1       -0.2200
      9 C009        1.6750    0.2966   -0.0205 C.ar    1  UNL1        0.1339
     10 N010        2.6732   -0.6193    0.4132 N.pl3   1  UNL1       -0.2988
     11 C011        4.0712   -0.5585    0.2128 C.ar    1  UNL1        0.0334
     12 C012        4.6494    0.0477   -0.9100 C.ar    1  UNL1       -0.0404
     13 C013        6.0334    0.0294   -1.1121 C.ar    1  UNL1       -0.0590
     14 C014        6.8626   -0.6213   -0.2029 C.ar    1  UNL1       -0.0476
     15 C015        6.2986   -1.2600    0.8970 C.ar    1  UNL1        0.0196
     16 BR016       7.4134   -2.1701    2.1244 Br      1  UNL1       -0.0502
     17 C017        4.9165   -1.2423    1.1002 C.ar    1  UNL1       -0.0265
     18 C018        0.3216   -0.0941    0.0455 C.ar    1  UNL1        0.0424
     19 C019       -0.1407   -1.3664    0.4651 C.ar    1  UNL1       -0.0250
     20 C020       -1.5017   -1.6709    0.4833 C.ar    1  UNL1        0.0676
     21 N021       -1.9324   -2.8956    1.0243 N.pl3   1  UNL1       -0.3551
     22 H022       -4.7139    0.3648   -0.9542 H       1  UNL1        0.0660
     23 H023       -5.7003   -0.4353    0.2745 H       1  UNL1        0.0660
     24 H024       -4.5591    0.8124    0.7903 H       1  UNL1        0.0660
     25 H025       -2.6566    1.3601   -0.5784 H       1  UNL1        0.0676
     26 H026        1.3583    3.3258   -1.1777 H       1  UNL1        0.1048
     27 H027        2.4447   -0.9219    1.3551 H       1  UNL1        0.1536
     28 H028        4.0254    0.5406   -1.6512 H       1  UNL1        0.0636
     29 H029        6.4574    0.5186   -1.9852 H       1  UNL1        0.0618
     30 H030        7.9366   -0.6335   -0.3658 H       1  UNL1        0.0629
     31 H031        4.4986   -1.7614    1.9582 H       1  UNL1        0.0647
     32 H032        0.5690   -2.1304    0.7714 H       1  UNL1        0.0645
     33 H033       -2.9074   -3.0735    0.7830 H       1  UNL1        0.1424
     34 H034       -1.3256   -3.6806    0.8146 H       1  UNL1        0.1424
@<TRIPOS>BOND
     1     1     2    1
     2     2     3    1
     3     3     4   ar
     4     4     5   ar
     5     5     6   ar
     6     6     7   ar
     7     7     8   ar
     8     8     9   ar
     9     9    10    1
    10    10    11    1
    11    11    12   ar
    12    12    13   ar
    13    13    14   ar
    14    14    15   ar
    15    15    16    1
    16    15    17   ar
    17     9    18   ar
    18    18    19   ar
    19    19    20   ar
    20    20    21    1
    21    20     3   ar
    22    18     5   ar
    23    17    11   ar
    24     1    22    1
    25     1    23    1
    26     1    24    1
    27     4    25    1
    28     7    26    1
    29    10    27    1
    30    12    28    1
    31    13    29    1
    32    14    30    1
    33    17    31    1
    34    19    32    1
    35    21    33    1
    36    21    34    1
