@<TRIPOS>MOLECULE
physical_ligands/6/lig.pdb
 42 44 0 0 0
SMALL
GASTEIGER

@<TRIPOS>ATOM
      1 C001       16.3650   -8.9830   -3.1460 C.3     1  LIG1        0.0956
      2 H002       16.4330   -8.0450   -2.5510 H       1  LIG1        0.0659
      3 O003       15.7430   -8.6480   -4.3760 O.3     1  LIG1       -0.3856
      4 H004       15.4710   -9.4470   -4.8260 H       1  LIG1        0.2103
      5 C005       15.4930  -10.0220   -2.3820 C.3     1  LIG1        0.0406
      6 H006       15.3370  -10.9100   -3.0340 H       1  LIG1        0.0490
      7 H007       16.0450  -10.3790   -1.4830 H       1  LIG1        0.0490
      8 N008       14.1540   -9.5380   -1.9370 N.pl3   1  LIG1       -0.3262
      9 H009       13.3700   -9.6670   -2.5710 H       1  LIG1        0.1476
     10 C010       14.0300   -8.4970   -1.0630 C.ar    1  LIG1        0.1225
     11 N011       15.1100   -8.0470   -0.3760 N.ar    1  LIG1       -0.2209
     12 C012       14.9200   -6.9910    0.4620 C.ar    1  LIG1        0.1187
     13 H013       15.7860   -6.5900    0.9930 H       1  LIG1        0.1048
     14 N014       13.7180   -6.4090    0.7180 N.ar    1  LIG1       -0.2353
     15 C015       12.6730   -6.9010    0.0430 C.ar    1  LIG1        0.0760
     16 C016       11.3250   -6.2520    0.3510 C.ar    1  LIG1        0.0005
     17 C017       12.7760   -7.9510   -0.8990 C.ar    1  LIG1        0.0041
     18 H018       11.9380   -8.3370   -1.4500 H       1  LIG1        0.0673
     19 C019       17.7420   -9.5170   -3.3720 C.ar    1  LIG1       -0.0177
     20 C020       20.1230   -9.5190   -2.8650 C.ar    1  LIG1       -0.0614
     21 H021       20.9560   -9.2170   -2.2500 H       1  LIG1        0.0618
     22 C022       20.3560  -10.3150   -3.9910 C.ar    1  LIG1       -0.0617
     23 H023       21.3460  -10.6730   -4.2270 H       1  LIG1        0.0618
     24 C024       19.2950  -10.6750   -4.8140 C.ar    1  LIG1       -0.0614
     25 H025       19.4720  -11.3470   -5.6230 H       1  LIG1        0.0618
     26 C026       10.1490   -6.6810   -0.3180 C.ar    1  LIG1       -0.0520
     27 H027       10.1460   -7.4860   -1.0370 H       1  LIG1        0.0624
     28 C028       11.1790   -5.2170    1.3110 C.ar    1  LIG1       -0.0520
     29 H029       12.0400   -4.8550    1.8590 H       1  LIG1        0.0624
     30 C030       17.9930  -10.2900   -4.5150 C.ar    1  LIG1       -0.0561
     31 H031       17.1720  -10.6080   -5.1440 H       1  LIG1        0.0621
     32 C032       18.8150   -9.1210   -2.5510 C.ar    1  LIG1       -0.0561
     33 H033       18.6310   -8.4710   -1.7100 H       1  LIG1        0.0621
     34 C094        8.9180   -6.0780   -0.0890 C.ar    1  LIG1       -0.0495
     35 H095        8.0600   -6.4180   -0.6480 H       1  LIG1        0.0623
     36 C096        8.7930   -5.0660    0.8620 C.ar    1  LIG1        0.0548
     37 C097        9.9290   -4.6530    1.5750 C.ar    1  LIG1       -0.0495
     38 H098        9.8220   -3.9120    2.3490 H       1  LIG1        0.0623
     39 C099        7.4850   -4.4520    1.1270 C.3     1  LIG1        0.4174
     40 F100        7.3220   -3.2810    0.4930 F       1  LIG1       -0.1659
     41 F101        6.4250   -5.2000    0.7820 F       1  LIG1       -0.1659
     42 F102        7.3250   -4.1930    2.4210 F       1  LIG1       -0.1659
@<TRIPOS>BOND
     1    25    24    1
     2    31    30    1
     3     4     3    1
     4    24    30   ar
     5    24    22   ar
     6    30    19   ar
     7     3     1    1
     8    23    22    1
     9    22    20   ar
    10    19     1    1
    11    19    32   ar
    12     1     2    1
    13     1     5    1
    14     6     5    1
    15    20    32   ar
    16    20    21    1
    17     9     8    1
    18    32    33    1
    19     5     8    1
    20     5     7    1
    21     8    10    1
    22    18    17    1
    23    10    17   ar
    24    10    11   ar
    25    27    26    1
    26    17    15   ar
    27    35    34    1
    28    11    12   ar
    29    26    34   ar
    30    26    16   ar
    31    34    36   ar
    32    15    16    1
    33    15    14   ar
    34    16    28   ar
    35    12    14   ar
    36    12    13    1
    37    40    39    1
    38    41    39    1
    39    36    39    1
    40    36    37   ar
    41    39    42    1
    42    28    37   ar
    43    28    29    1
    44    37    38    1
