@<TRIPOS>MOLECULE
physical_ligands/1/lig.pdb
 39 41 0 0 0
SMALL
GASTEIGER

@<TRIPOS>ATOM
      1 C001        3.5710   -1.7230   -2.3550 C.3     1  LIG1        0.0956
      2 H002        3.6840   -0.7990   -1.7490 H       1  LIG1        0.0659
      3 O003        2.8960   -1.3470   -3.5600 O.3     1  LIG1       -0.3856
      4 H004        2.5520   -2.1650   -3.9430 H       1  LIG1        0.2103
      5 C005        2.7290   -2.7590   -1.5530 C.3     1  LIG1        0.0406
      6 H006        2.5620   -3.6530   -2.1970 H       1  LIG1        0.0490
      7 H007        3.3110   -3.1220   -0.6750 H       1  LIG1        0.0490
      8 N008        1.3860   -2.2920   -1.0730 N.pl3   1  LIG1       -0.3262
      9 H009        0.6090   -2.4490   -1.6890 H       1  LIG1        0.1476
     10 C010        1.2730   -1.2300   -0.2140 C.ar    1  LIG1        0.1225
     11 N011        2.3490   -0.7180    0.3990 N.ar    1  LIG1       -0.2209
     12 C012        2.1700    0.3320    1.2380 C.ar    1  LIG1        0.1187
     13 H013        3.0370    0.7540    1.7170 H       1  LIG1        0.1048
     14 N014        0.9590    0.9640    1.4290 N.ar    1  LIG1       -0.2353
     15 C015       -0.0880    0.3990    0.8760 C.ar    1  LIG1        0.0760
     16 C016       -1.4470    1.0600    1.2080 C.ar    1  LIG1        0.0005
     17 C017       -0.0210   -0.7100   -0.0420 C.ar    1  LIG1        0.0041
     18 H018       -0.8560   -1.1410   -0.5110 H       1  LIG1        0.0673
     19 C019        4.9340   -2.3240   -2.5820 C.ar    1  LIG1       -0.0177
     20 C020        7.3070   -2.3950   -2.0520 C.ar    1  LIG1       -0.0614
     21 H021        8.1350   -2.0620   -1.4460 H       1  LIG1        0.0618
     22 C022        7.5160   -3.2810   -3.1170 C.ar    1  LIG1       -0.0617
     23 H023        8.5160   -3.6020   -3.3610 H       1  LIG1        0.0618
     24 C024        6.4320   -3.7220   -3.8880 C.ar    1  LIG1       -0.0614
     25 H025        6.5970   -4.3820   -4.7250 H       1  LIG1        0.0618
     26 C026       -2.6450    0.6820    0.5580 C.ar    1  LIG1       -0.0526
     27 H027       -2.6570   -0.0910   -0.2000 H       1  LIG1        0.0624
     28 C028       -1.5560    2.0610    2.2180 C.ar    1  LIG1       -0.0526
     29 H029       -0.6850    2.3840    2.7690 H       1  LIG1        0.0624
     30 C030        5.1430   -3.2590   -3.6100 C.ar    1  LIG1       -0.0561
     31 H031        4.3050   -3.5690   -4.2140 H       1  LIG1        0.0621
     32 C032        6.0200   -1.9190   -1.7850 C.ar    1  LIG1       -0.0561
     33 H033        5.8630   -1.2200   -0.9770 H       1  LIG1        0.0621
     34 C034       -3.8860    1.2250    0.9200 C.ar    1  LIG1       -0.0611
     35 H035       -4.7880    0.8720    0.4370 H       1  LIG1        0.0618
     36 C036       -3.9560    2.2030    1.9120 C.ar    1  LIG1       -0.0617
     37 H037       -4.9140    2.6180    2.1890 H       1  LIG1        0.0618
     38 C038       -2.7920    2.6330    2.5570 C.ar    1  LIG1       -0.0611
     39 H039       -2.8420    3.3860    3.3260 H       1  LIG1        0.0618
@<TRIPOS>BOND
     1    25    24    1
     2    31    30    1
     3     4     3    1
     4    24    30   ar
     5    24    22   ar
     6    30    19   ar
     7     3     1    1
     8    23    22    1
     9    22    20   ar
    10    19     1    1
    11    19    32   ar
    12     1     2    1
    13     1     5    1
    14     6     5    1
    15    20    32   ar
    16    20    21    1
    17    32    33    1
    18     9     8    1
    19     5     8    1
    20     5     7    1
    21     8    10    1
    22    18    17    1
    23    10    17   ar
    24    10    11   ar
    25    27    26    1
    26    17    15   ar
    27    11    12   ar
    28    35    34    1
    29    26    34   ar
    30    26    16   ar
    31    15    16    1
    32    15    14   ar
    33    34    36   ar
    34    16    28   ar
    35    12    14   ar
    36    12    13    1
    37    36    37    1
    38    36    38   ar
    39    28    38   ar
    40    28    29    1
    41    38    39    1
