@<TRIPOS>MOLECULE
physical_ligands/5/lig.pdb
 51 53 0 0 0
SMALL
GASTEIGER

@<TRIPOS>ATOM
      1 C001        3.5730   -1.7240   -2.3550 C.3     1  LIG1        0.0956
      2 H002        3.6860   -0.8010   -1.7500 H       1  LIG1        0.0659
      3 O003        2.8960   -1.3480   -3.5600 O.3     1  LIG1       -0.3856
      4 H004        2.5540   -2.1650   -3.9430 H       1  LIG1        0.2103
      5 C005        2.7390   -2.7670   -1.5560 C.3     1  LIG1        0.0406
      6 H006        2.5700   -3.6580   -2.2010 H       1  LIG1        0.0490
      7 H007        3.3220   -3.1280   -0.6780 H       1  LIG1        0.0490
      8 N008        1.3990   -2.2990   -1.0690 N.pl3   1  LIG1       -0.3262
      9 H009        0.6190   -2.4530   -1.6890 H       1  LIG1        0.1476
     10 C010        1.2850   -1.2440   -0.2190 C.ar    1  LIG1        0.1225
     11 N011        2.3700   -0.7230    0.4030 N.ar    1  LIG1       -0.2209
     12 C012        2.1690    0.3280    1.2330 C.ar    1  LIG1        0.1187
     13 H013        3.0460    0.7570    1.7210 H       1  LIG1        0.1048
     14 N014        0.9740    0.9560    1.4220 N.ar    1  LIG1       -0.2353
     15 C015       -0.0750    0.3780    0.8590 C.ar    1  LIG1        0.0760
     16 C016       -1.4340    1.0360    1.1760 C.ar    1  LIG1        0.0005
     17 C017        0.0110   -0.7180   -0.0400 C.ar    1  LIG1        0.0041
     18 H018       -0.8380   -1.1650   -0.5240 H       1  LIG1        0.0673
     19 C019        4.9370   -2.3230   -2.5840 C.ar    1  LIG1       -0.0177
     20 C020        7.3080   -2.3950   -2.0530 C.ar    1  LIG1       -0.0614
     21 H021        8.1360   -2.0620   -1.4460 H       1  LIG1        0.0618
     22 C022        7.5170   -3.2810   -3.1180 C.ar    1  LIG1       -0.0617
     23 H023        8.5170   -3.6020   -3.3620 H       1  LIG1        0.0618
     24 C024        6.4330   -3.7220   -3.8880 C.ar    1  LIG1       -0.0614
     25 H025        6.5970   -4.3810   -4.7260 H       1  LIG1        0.0618
     26 C026       -2.6140    0.6500    0.5050 C.ar    1  LIG1       -0.0523
     27 H027       -2.6110   -0.1290   -0.2520 H       1  LIG1        0.0624
     28 C028       -1.5690    2.0220    2.1860 C.ar    1  LIG1       -0.0523
     29 H029       -0.7080    2.3450    2.7620 H       1  LIG1        0.0624
     30 C030        5.1440   -3.2580   -3.6110 C.ar    1  LIG1       -0.0561
     31 H031        4.3050   -3.5680   -4.2140 H       1  LIG1        0.0621
     32 C032        6.0210   -1.9190   -1.7850 C.ar    1  LIG1       -0.0561
     33 H033        5.8640   -1.2200   -0.9770 H       1  LIG1        0.0621
     34 C076       -3.8550    1.1790    0.8400 C.ar    1  LIG1       -0.0574
     35 H077       -4.7250    0.7780    0.3300 H       1  LIG1        0.0621
     36 C078       -3.9760    2.1760    1.8180 C.ar    1  LIG1       -0.0419
     37 C079       -2.8050    2.5820    2.4990 C.ar    1  LIG1       -0.0574
     38 H080       -2.8440    3.3130    3.2900 H       1  LIG1        0.0621
     39 C081       -5.3340    2.7760    2.1770 C.3     1  LIG1       -0.0127
     40 C082       -5.1650    4.2610    2.5600 C.3     1  LIG1       -0.0560
     41 H083       -4.6650    4.3690    3.5430 H       1  LIG1        0.0238
     42 H084       -4.5710    4.7930    1.7840 H       1  LIG1        0.0238
     43 H085       -6.1600    4.7450    2.6290 H       1  LIG1        0.0238
     44 C086       -6.2990    2.7040    0.9790 C.3     1  LIG1       -0.0560
     45 H087       -7.2210    3.2810    1.2010 H       1  LIG1        0.0238
     46 H088       -5.8400    3.1110    0.0540 H       1  LIG1        0.0238
     47 H089       -6.6130    1.6560    0.7910 H       1  LIG1        0.0238
     48 C090       -5.9060    1.9410    3.3370 C.3     1  LIG1       -0.0560
     49 H091       -5.2020    1.8890    4.1920 H       1  LIG1        0.0238
     50 H092       -6.1240    0.9060    2.9920 H       1  LIG1        0.0238
     51 H093       -6.8600    2.3870    3.6890 H       1  LIG1        0.0238
@<TRIPOS>BOND
     1    25    24    1
     2    31    30    1
     3     4     3    1
     4    24    30   ar
     5    24    22   ar
     6    30    19   ar
     7     3     1    1
     8    23    22    1
     9    22    20   ar
    10    19     1    1
    11    19    32   ar
    12     1     2    1
    13     1     5    1
    14     6     5    1
    15    20    32   ar
    16    20    21    1
    17    32    33    1
    18     9     8    1
    19     5     8    1
    20     5     7    1
    21     8    10    1
    22    18    17    1
    23    27    26    1
    24    10    17   ar
    25    10    11   ar
    26    17    15   ar
    27    46    44    1
    28    35    34    1
    29    11    12   ar
    30    26    34   ar
    31    26    16   ar
    32    47    44    1
    33    34    36   ar
    34    15    16    1
    35    15    14   ar
    36    44    45    1
    37    44    39    1
    38    16    28   ar
    39    12    14   ar
    40    12    13    1
    41    42    40    1
    42    36    39    1
    43    36    37   ar
    44    39    40    1
    45    39    48    1
    46    28    37   ar
    47    28    29    1
    48    37    38    1
    49    40    43    1
    50    40    41    1
    51    50    48    1
    52    48    51    1
    53    48    49    1
