@<TRIPOS>MOLECULE
physical_ligands/3/lig.pdb
 45 47 0 0 0
SMALL
GASTEIGER

@<TRIPOS>ATOM
      1 C001       16.3670   -8.9820   -3.1460 C.3     1  LIG1        0.0956
      2 H002       16.4340   -8.0450   -2.5510 H       1  LIG1        0.0659
      3 O003       15.7440   -8.6490   -4.3760 O.3     1  LIG1       -0.3856
      4 H004       15.4690   -9.4480   -4.8250 H       1  LIG1        0.2103
      5 C005       15.4990  -10.0220   -2.3810 C.3     1  LIG1        0.0406
      6 H006       15.3400  -10.9100   -3.0340 H       1  LIG1        0.0490
      7 H007       16.0530  -10.3800   -1.4840 H       1  LIG1        0.0490
      8 N008       14.1620   -9.5380   -1.9330 N.pl3   1  LIG1       -0.3262
      9 H009       13.3780   -9.6640   -2.5670 H       1  LIG1        0.1476
     10 C010       14.0380   -8.4940   -1.0620 C.ar    1  LIG1        0.1225
     11 N011       15.1130   -8.0390   -0.3710 N.ar    1  LIG1       -0.2209
     12 C012       14.9130   -6.9820    0.4650 C.ar    1  LIG1        0.1187
     13 H013       15.7770   -6.5800    1.0010 H       1  LIG1        0.1048
     14 N014       13.7070   -6.4030    0.7140 N.ar    1  LIG1       -0.2353
     15 C015       12.6670   -6.9000    0.0330 C.ar    1  LIG1        0.0760
     16 C016       11.3050   -6.2810    0.3470 C.ar    1  LIG1        0.0005
     17 C017       12.7830   -7.9500   -0.9080 C.ar    1  LIG1        0.0041
     18 H018       11.9510   -8.3470   -1.4600 H       1  LIG1        0.0673
     19 C019       17.7440   -9.5160   -3.3730 C.ar    1  LIG1       -0.0177
     20 C020       20.1240   -9.5190   -2.8640 C.ar    1  LIG1       -0.0614
     21 H021       20.9570   -9.2170   -2.2490 H       1  LIG1        0.0618
     22 C022       20.3580  -10.3140   -3.9900 C.ar    1  LIG1       -0.0617
     23 H023       21.3480  -10.6720   -4.2260 H       1  LIG1        0.0618
     24 C024       19.2970  -10.6750   -4.8140 C.ar    1  LIG1       -0.0614
     25 H025       19.4750  -11.3470   -5.6230 H       1  LIG1        0.0618
     26 C026       10.1360   -6.7400   -0.3200 C.ar    1  LIG1       -0.0523
     27 H027       10.1550   -7.5260   -1.0600 H       1  LIG1        0.0624
     28 C028       11.1330   -5.2480    1.3110 C.ar    1  LIG1       -0.0523
     29 H029       11.9900   -4.8500    1.8400 H       1  LIG1        0.0624
     30 C030       17.9950  -10.2900   -4.5160 C.ar    1  LIG1       -0.0561
     31 H031       17.1740  -10.6080   -5.1450 H       1  LIG1        0.0621
     32 C032       18.8160   -9.1210   -2.5510 C.ar    1  LIG1       -0.0561
     33 H033       18.6310   -8.4710   -1.7090 H       1  LIG1        0.0621
     34 C049        8.8850   -6.1880   -0.0540 C.ar    1  LIG1       -0.0580
     35 H050        8.0260   -6.5140   -0.6090 H       1  LIG1        0.0620
     36 C051        8.7410   -5.2090    0.9190 C.ar    1  LIG1       -0.0476
     37 C052        9.8620   -4.7380    1.5990 C.ar    1  LIG1       -0.0580
     38 H053        9.7120   -3.9740    2.3400 H       1  LIG1        0.0620
     39 C054        7.4030   -4.6060    1.1750 C.3     1  LIG1       -0.0305
     40 H055        7.4050   -4.2100    2.2120 H       1  LIG1        0.0311
     41 H056        6.6260   -5.3970    1.0980 H       1  LIG1        0.0311
     42 C057        7.1770   -3.4940    0.1450 C.3     1  LIG1       -0.0613
     43 H058        6.7700   -3.8990   -0.8030 H       1  LIG1        0.0233
     44 H059        6.4600   -2.7520    0.5470 H       1  LIG1        0.0233
     45 H060        8.1270   -2.9570   -0.0890 H       1  LIG1        0.0233
@<TRIPOS>BOND
     1    25    24    1
     2    31    30    1
     3     4     3    1
     4    24    30   ar
     5    24    22   ar
     6    30    19   ar
     7     3     1    1
     8    23    22    1
     9    22    20   ar
    10    19     1    1
    11    19    32   ar
    12     1     2    1
    13     1     5    1
    14     6     5    1
    15    20    32   ar
    16    20    21    1
    17     9     8    1
    18    32    33    1
    19     5     8    1
    20     5     7    1
    21     8    10    1
    22    18    17    1
    23    10    17   ar
    24    10    11   ar
    25    27    26    1
    26    17    15   ar
    27    43    42    1
    28    35    34    1
    29    11    12   ar
    30    26    34   ar
    31    26    16   ar
    32    45    42    1
    33    34    36   ar
    34    15    16    1
    35    15    14   ar
    36    42    44    1
    37    42    39    1
    38    16    28   ar
    39    12    14   ar
    40    12    13    1
    41    36    39    1
    42    36    37   ar
    43    41    39    1
    44    39    40    1
    45    28    37   ar
    46    28    29    1
    47    37    38    1
