@<TRIPOS>MOLECULE
physical_ligands/5/lig.pdb
 51 53 0 0 0
SMALL
GASTEIGER

@<TRIPOS>ATOM
      1 C001       16.3660   -8.9830   -3.1450 C.3     1  LIG1        0.0956
      2 H002       16.4340   -8.0460   -2.5500 H       1  LIG1        0.0659
      3 O003       15.7440   -8.6470   -4.3750 O.3     1  LIG1       -0.3856
      4 H004       15.4710   -9.4450   -4.8260 H       1  LIG1        0.2103
      5 C005       15.4980  -10.0260   -2.3840 C.3     1  LIG1        0.0406
      6 H006       15.3400  -10.9130   -3.0370 H       1  LIG1        0.0490
      7 H007       16.0490  -10.3820   -1.4840 H       1  LIG1        0.0490
      8 N008       14.1610   -9.5440   -1.9370 N.pl3   1  LIG1       -0.3262
      9 H009       13.3740   -9.6690   -2.5690 H       1  LIG1        0.1476
     10 C010       14.0470   -8.5020   -1.0680 C.ar    1  LIG1        0.1225
     11 N011       15.1250   -8.0510   -0.3770 N.ar    1  LIG1       -0.2209
     12 C012       14.9300   -6.9920    0.4580 C.ar    1  LIG1        0.1187
     13 H013       15.7910   -6.5870    0.9950 H       1  LIG1        0.1048
     14 N014       13.7290   -6.4090    0.7040 N.ar    1  LIG1       -0.2353
     15 C015       12.6930   -6.9060    0.0200 C.ar    1  LIG1        0.0760
     16 C016       11.3400   -6.2920    0.3230 C.ar    1  LIG1        0.0005
     17 C017       12.7990   -7.9570   -0.9150 C.ar    1  LIG1        0.0041
     18 H018       11.9620   -8.3510   -1.4630 H       1  LIG1        0.0673
     19 C019       17.7420   -9.5160   -3.3730 C.ar    1  LIG1       -0.0177
     20 C020       20.1220   -9.5200   -2.8660 C.ar    1  LIG1       -0.0614
     21 H021       20.9560   -9.2180   -2.2520 H       1  LIG1        0.0618
     22 C022       20.3550  -10.3160   -3.9920 C.ar    1  LIG1       -0.0617
     23 H023       21.3440  -10.6760   -4.2280 H       1  LIG1        0.0618
     24 C024       19.2920  -10.6760   -4.8140 C.ar    1  LIG1       -0.0614
     25 H025       19.4690  -11.3480   -5.6240 H       1  LIG1        0.0618
     26 C026       10.1800   -6.7580   -0.3490 C.ar    1  LIG1       -0.0523
     27 H027       10.1830   -7.5480   -1.0830 H       1  LIG1        0.0624
     28 C028       11.1770   -5.2770    1.2970 C.ar    1  LIG1       -0.0523
     29 H029       12.0280   -4.8800    1.8400 H       1  LIG1        0.0624
     30 C030       17.9910  -10.2900   -4.5150 C.ar    1  LIG1       -0.0561
     31 H031       17.1690  -10.6080   -5.1430 H       1  LIG1        0.0621
     32 C032       18.8150   -9.1200   -2.5520 C.ar    1  LIG1       -0.0561
     33 H033       18.6310   -8.4690   -1.7110 H       1  LIG1        0.0621
     34 C076        8.9340   -6.2180   -0.0900 C.ar    1  LIG1       -0.0574
     35 H077        8.0820   -6.5750   -0.6330 H       1  LIG1        0.0621
     36 C078        8.7830   -5.2460    0.8730 C.ar    1  LIG1       -0.0419
     37 C079        9.9080   -4.7940    1.5940 C.ar    1  LIG1       -0.0574
     38 H080        9.8140   -4.0790    2.3890 H       1  LIG1        0.0621
     39 C081        7.4020   -4.7270    1.1230 C.3     1  LIG1       -0.0127
     40 C082        7.5790   -3.3010    1.4270 C.3     1  LIG1       -0.0560
     41 H083        8.0100   -3.2010    2.4510 H       1  LIG1        0.0238
     42 H084        8.2260   -2.7800    0.6840 H       1  LIG1        0.0238
     43 H085        6.5900   -2.8060    1.4210 H       1  LIG1        0.0238
     44 C086        6.4210   -4.7170   -0.0520 C.3     1  LIG1       -0.0560
     45 H087        5.5580   -4.0910    0.2410 H       1  LIG1        0.0238
     46 H088        6.8830   -4.2530   -0.9480 H       1  LIG1        0.0238
     47 H089        6.0320   -5.7250   -0.2630 H       1  LIG1        0.0238
     48 C090        6.8310   -5.4320    2.3310 C.3     1  LIG1       -0.0560
     49 H091        7.5400   -5.4390    3.1910 H       1  LIG1        0.0238
     50 H092        6.5610   -6.4580    2.1220 H       1  LIG1        0.0238
     51 H093        5.8860   -4.9230    2.5980 H       1  LIG1        0.0238
@<TRIPOS>BOND
     1    25    24    1
     2    31    30    1
     3     4     3    1
     4    24    30   ar
     5    24    22   ar
     6    30    19   ar
     7     3     1    1
     8    23    22    1
     9    22    20   ar
    10    19     1    1
    11    19    32   ar
    12     1     2    1
    13     1     5    1
    14     6     5    1
    15    20    32   ar
    16    20    21    1
    17     9     8    1
    18    32    33    1
    19     5     8    1
    20     5     7    1
    21     8    10    1
    22    18    17    1
    23    27    26    1
    24    10    17   ar
    25    10    11   ar
    26    46    44    1
    27    17    15   ar
    28    35    34    1
    29    11    12   ar
    30    26    34   ar
    31    26    16   ar
    32    47    44    1
    33    34    36   ar
    34    44    45    1
    35    44    39    1
    36    15    16    1
    37    15    14   ar
    38    16    28   ar
    39    12    14   ar
    40    12    13    1
    41    42    40    1
    42    36    39    1
    43    36    37   ar
    44    39    40    1
    45    39    48    1
    46    28    37   ar
    47    28    29    1
    48    43    40    1
    49    40    41    1
    50    37    38    1
    51    50    48    1
    52    48    51    1
    53    48    49    1
