@<TRIPOS>MOLECULE
physical_ligands/3/lig.pdb
 45 47 0 0 0
SMALL
GASTEIGER

@<TRIPOS>ATOM
      1 C001        3.5760   -1.7250   -2.3550 C.3     1  LIG1        0.0956
      2 H002        3.6880   -0.8010   -1.7480 H       1  LIG1        0.0659
      3 O003        2.8970   -1.3480   -3.5580 O.3     1  LIG1       -0.3856
      4 H004        2.5560   -2.1650   -3.9430 H       1  LIG1        0.2103
      5 C005        2.7470   -2.7670   -1.5540 C.3     1  LIG1        0.0406
      6 H006        2.5740   -3.6590   -2.2020 H       1  LIG1        0.0490
      7 H007        3.3310   -3.1330   -0.6800 H       1  LIG1        0.0490
      8 N008        1.4010   -2.3030   -1.0670 N.pl3   1  LIG1       -0.3262
      9 H009        0.6310   -2.4550   -1.6800 H       1  LIG1        0.1476
     10 C010        1.3200   -1.2410   -0.2080 C.ar    1  LIG1        0.1225
     11 N011        2.3580   -0.7170    0.4050 N.ar    1  LIG1       -0.2209
     12 C012        2.2060    0.3340    1.2460 C.ar    1  LIG1        0.1187
     13 H013        3.0280    0.7620    1.7220 H       1  LIG1        0.1048
     14 N014        0.9450    0.9630    1.4220 N.ar    1  LIG1       -0.2353
     15 C015       -0.0720    0.3840    0.8620 C.ar    1  LIG1        0.0760
     16 C016       -1.4450    1.0090    1.1610 C.ar    1  LIG1        0.0005
     17 C017       -0.0060   -0.7380   -0.0590 C.ar    1  LIG1        0.0041
     18 H018       -0.8110   -1.1730   -0.5210 H       1  LIG1        0.0673
     19 C019        4.9390   -2.3210   -2.5850 C.ar    1  LIG1       -0.0177
     20 C020        7.3090   -2.3950   -2.0530 C.ar    1  LIG1       -0.0614
     21 H021        8.1370   -2.0630   -1.4460 H       1  LIG1        0.0618
     22 C022        7.5180   -3.2810   -3.1180 C.ar    1  LIG1       -0.0617
     23 H023        8.5180   -3.6010   -3.3630 H       1  LIG1        0.0618
     24 C024        6.4340   -3.7210   -3.8890 C.ar    1  LIG1       -0.0614
     25 H025        6.5980   -4.3800   -4.7270 H       1  LIG1        0.0618
     26 C026       -2.6170    0.6040    0.4730 C.ar    1  LIG1       -0.0523
     27 H027       -2.5920   -0.1570   -0.2950 H       1  LIG1        0.0624
     28 C028       -1.6070    2.0030    2.1730 C.ar    1  LIG1       -0.0523
     29 H029       -0.7560    2.3540    2.7390 H       1  LIG1        0.0624
     30 C030        5.1450   -3.2570   -3.6110 C.ar    1  LIG1       -0.0561
     31 H031        4.3060   -3.5670   -4.2150 H       1  LIG1        0.0621
     32 C032        6.0220   -1.9190   -1.7860 C.ar    1  LIG1       -0.0561
     33 H033        5.8650   -1.2210   -0.9770 H       1  LIG1        0.0621
     34 C049       -3.8770    1.0970    0.8110 C.ar    1  LIG1       -0.0580
     35 H050       -4.7540    0.7320    0.2940 H       1  LIG1        0.0620
     36 C051       -4.0050    2.0550    1.8140 C.ar    1  LIG1       -0.0476
     37 C052       -2.8650    2.5270    2.4810 C.ar    1  LIG1       -0.0580
     38 H053       -2.9650    3.2900    3.2380 H       1  LIG1        0.0620
     39 C054       -5.3450    2.6520    2.0920 C.3     1  LIG1       -0.0305
     40 H055       -5.3640    3.0130    3.1420 H       1  LIG1        0.0311
     41 H056       -6.1270    1.8670    1.9740 H       1  LIG1        0.0311
     42 C057       -5.5630    3.7980    1.0950 C.3     1  LIG1       -0.0613
     43 H058       -5.9880    3.4010    0.1460 H       1  LIG1        0.0233
     44 H059       -6.2720    4.5380    1.5190 H       1  LIG1        0.0233
     45 H060       -4.6120    4.3220    0.8530 H       1  LIG1        0.0233
@<TRIPOS>BOND
     1    25    24    1
     2    31    30    1
     3     4     3    1
     4    24    30   ar
     5    24    22   ar
     6    30    19   ar
     7     3     1    1
     8    23    22    1
     9    22    20   ar
    10    19     1    1
    11    19    32   ar
    12     1     2    1
    13     1     5    1
    14     6     5    1
    15    20    32   ar
    16    20    21    1
    17    32    33    1
    18     9     8    1
    19     5     8    1
    20     5     7    1
    21     8    10    1
    22    18    17    1
    23    27    26    1
    24    10    17   ar
    25    10    11   ar
    26    17    15   ar
    27    43    42    1
    28    35    34    1
    29    11    12   ar
    30    26    34   ar
    31    26    16   ar
    32    34    36   ar
    33    45    42    1
    34    15    16    1
    35    15    14   ar
    36    42    44    1
    37    42    39    1
    38    16    28   ar
    39    12    14   ar
    40    12    13    1
    41    36    39    1
    42    36    37   ar
    43    41    39    1
    44    39    40    1
    45    28    37   ar
    46    28    29    1
    47    37    38    1
