@<TRIPOS>MOLECULE
physical_ligands/2/lig.pdb
 42 44 0 0 0
SMALL
GASTEIGER

@<TRIPOS>ATOM
      1 C001        3.5760   -1.7260   -2.3590 C.3     1  LIG1        0.0956
      2 H002        3.6870   -0.8040   -1.7530 H       1  LIG1        0.0659
      3 O003        2.8970   -1.3500   -3.5620 O.3     1  LIG1       -0.3856
      4 H004        2.5550   -2.1670   -3.9460 H       1  LIG1        0.2103
      5 C005        2.7380   -2.7720   -1.5600 C.3     1  LIG1        0.0406
      6 H006        2.5760   -3.6630   -2.2080 H       1  LIG1        0.0490
      7 H007        3.3290   -3.1370   -0.6850 H       1  LIG1        0.0490
      8 N008        1.4240   -2.3120   -1.0670 N.pl3   1  LIG1       -0.3262
      9 H009        0.6190   -2.4570   -1.6940 H       1  LIG1        0.1476
     10 C010        1.2680   -1.2500   -0.2230 C.ar    1  LIG1        0.1225
     11 N011        2.4100   -0.7420    0.4030 N.ar    1  LIG1       -0.2209
     12 C012        2.1470    0.3260    1.2220 C.ar    1  LIG1        0.1187
     13 H013        3.0870    0.7480    1.7190 H       1  LIG1        0.1048
     14 N014        1.0410    0.9470    1.4220 N.ar    1  LIG1       -0.2353
     15 C015       -0.0820    0.3700    0.8490 C.ar    1  LIG1        0.0760
     16 C016       -1.4000    1.0370    1.1910 C.ar    1  LIG1        0.0005
     17 C017        0.0530   -0.7100   -0.0280 C.ar    1  LIG1        0.0041
     18 H018       -0.8350   -1.1690   -0.5260 H       1  LIG1        0.0673
     19 C019        4.9390   -2.3230   -2.5870 C.ar    1  LIG1       -0.0177
     20 C020        7.3090   -2.3960   -2.0530 C.ar    1  LIG1       -0.0614
     21 H021        8.1370   -2.0630   -1.4460 H       1  LIG1        0.0618
     22 C022        7.5180   -3.2810   -3.1180 C.ar    1  LIG1       -0.0617
     23 H023        8.5190   -3.6020   -3.3630 H       1  LIG1        0.0618
     24 C024        6.4350   -3.7220   -3.8900 C.ar    1  LIG1       -0.0614
     25 H025        6.5990   -4.3810   -4.7270 H       1  LIG1        0.0618
     26 C026       -2.6010    0.6440    0.5290 C.ar    1  LIG1       -0.0523
     27 H027       -2.6030   -0.1260   -0.2300 H       1  LIG1        0.0624
     28 C028       -1.5330    2.0370    2.1960 C.ar    1  LIG1       -0.0523
     29 H029       -0.6610    2.3720    2.7500 H       1  LIG1        0.0624
     30 C030        5.1460   -3.2580   -3.6130 C.ar    1  LIG1       -0.0561
     31 H031        4.3070   -3.5680   -4.2160 H       1  LIG1        0.0621
     32 C032        6.0220   -1.9190   -1.7870 C.ar    1  LIG1       -0.0561
     33 H033        5.8640   -1.2220   -0.9780 H       1  LIG1        0.0621
     34 C040       -3.8420    1.1670    0.8960 C.ar    1  LIG1       -0.0582
     35 H041       -4.7420    0.8010    0.4130 H       1  LIG1        0.0620
     36 C042       -3.9320    2.1380    1.8870 C.ar    1  LIG1       -0.0504
     37 C043       -2.7690    2.5910    2.5300 C.ar    1  LIG1       -0.0582
     38 H044       -2.8360    3.3490    3.2940 H       1  LIG1        0.0620
     39 C045       -5.2610    2.7030    2.2410 C.3     1  LIG1       -0.0397
     40 H046       -6.0170    1.8850    2.2280 H       1  LIG1        0.0278
     41 H047       -5.2260    3.1590    3.2510 H       1  LIG1        0.0278
     42 H048       -5.5230    3.4650    1.4770 H       1  LIG1        0.0278
@<TRIPOS>BOND
     1    25    24    1
     2    31    30    1
     3     4     3    1
     4    24    30   ar
     5    24    22   ar
     6    30    19   ar
     7     3     1    1
     8    23    22    1
     9    22    20   ar
    10    19     1    1
    11    19    32   ar
    12     1     2    1
    13     1     5    1
    14     6     5    1
    15    20    32   ar
    16    20    21    1
    17    32    33    1
    18     9     8    1
    19     5     8    1
    20     5     7    1
    21     8    10    1
    22    18    17    1
    23    27    26    1
    24    10    17   ar
    25    10    11   ar
    26    17    15   ar
    27    11    12   ar
    28    35    34    1
    29    26    34   ar
    30    26    16   ar
    31    15    16    1
    32    15    14   ar
    33    34    36   ar
    34    16    28   ar
    35    12    14   ar
    36    12    13    1
    37    42    39    1
    38    36    39    1
    39    36    37   ar
    40    28    37   ar
    41    28    29    1
    42    40    39    1
    43    39    41    1
    44    37    38    1
