
     RDKit          3D

 39 41  0  0  0  0  0  0  0  0999 V2000
   18.7719   -9.0998   -2.6464 C   0  0  0  0  0  0  0  0  0  0  0  0
   20.0388   -9.5582   -2.9455 C   0  0  0  0  0  0  0  0  0  0  0  0
   20.2537  -10.4005   -4.0152 C   0  0  0  0  0  0  0  0  0  0  0  0
   19.1516  -10.7573   -4.7622 C   0  0  0  0  0  0  0  0  0  0  0  0
   17.8827  -10.2966   -4.4606 C   0  0  0  0  0  0  0  0  0  0  0  0
   17.6644   -9.4532   -3.3901 C   0  0  0  0  0  0  0  0  0  0  0  0
   16.2868   -8.9553   -3.0659 C   0  0  1  0  0  0  0  0  0  0  0  0
   15.6345   -8.5341   -4.2337 O   0  0  0  0  0  0  0  0  0  0  0  0
   15.4508   -9.9979   -2.4125 C   0  0  0  0  0  0  0  0  0  0  0  0
   14.1605   -9.4542   -2.0841 N   0  0  0  0  0  0  0  0  0  0  0  0
   14.0416   -8.4092   -1.1322 C   0  0  0  0  0  0  0  0  0  0  0  0
   15.0875   -7.9012   -0.4672 N   0  0  0  0  0  0  0  0  0  0  0  0
   14.9392   -6.9133    0.4256 C   0  0  0  0  0  0  0  0  0  0  0  0
   13.7316   -6.3948    0.6868 N   0  0  0  0  0  0  0  0  0  0  0  0
   12.6241   -6.8596    0.0507 C   0  0  0  0  0  0  0  0  0  0  0  0
   11.3234   -6.2612    0.3688 C   0  0  0  0  0  0  0  0  0  0  0  0
   10.1524   -6.6674   -0.2246 C   0  0  0  0  0  0  0  0  0  0  0  0
    8.9315   -6.0648    0.1118 C   0  0  0  0  0  0  0  0  0  0  0  0
    8.8657   -5.0515    1.0427 C   0  0  0  0  0  0  0  0  0  0  0  0
   10.0425   -4.6468    1.6358 C   0  0  0  0  0  0  0  0  0  0  0  0
   11.2390   -5.2455    1.2986 C   0  0  0  0  0  0  0  0  0  0  0  0
   12.7894   -7.8623   -0.8527 C   0  0  0  0  0  0  0  0  0  0  0  0
   18.5970   -8.4363   -1.8051 H   0  0  0  0  0  0  0  0  0  0  0  0
   20.9076   -9.2776   -2.3576 H   0  0  0  0  0  0  0  0  0  0  0  0
   21.2507  -10.7629   -4.2527 H   0  0  0  0  0  0  0  0  0  0  0  0
   19.2823  -11.4250   -5.6200 H   0  0  0  0  0  0  0  0  0  0  0  0
   17.0226  -10.5936   -5.0682 H   0  0  0  0  0  0  0  0  0  0  0  0
   16.3569   -8.0729   -2.4165 H   0  0  0  0  0  0  0  0  0  0  0  0
   15.4772   -9.2581   -4.8681 H   0  0  0  0  0  0  0  0  0  0  0  0
   15.3257  -10.9064   -3.0500 H   0  0  0  0  0  0  0  0  0  0  0  0
   15.9025  -10.3569   -1.4591 H   0  0  0  0  0  0  0  0  0  0  0  0
   13.3092   -9.8286   -2.5464 H   0  0  0  0  0  0  0  0  0  0  0  0
   15.8002   -6.5235    0.9467 H   0  0  0  0  0  0  0  0  0  0  0  0
   10.1616   -7.4522   -0.9532 H   0  0  0  0  0  0  0  0  0  0  0  0
    8.0132   -6.3922   -0.3618 H   0  0  0  0  0  0  0  0  0  0  0  0
    7.9072   -4.5988    1.2878 H   0  0  0  0  0  0  0  0  0  0  0  0
    9.9752   -3.8436    2.3710 H   0  0  0  0  0  0  0  0  0  0  0  0
   12.1628   -4.9342    1.7582 H   0  0  0  0  0  0  0  0  0  0  0  0
   11.9464   -8.2725   -1.3894 H   0  0  0  0  0  0  0  0  0  0  0  0
  1  2  2  0
  2  3  1  0
  3  4  2  0
  4  5  1  0
  5  6  2  0
  6  7  1  0
  7  8  1  0
  7  9  1  0
  9 10  1  0
 10 11  1  0
 11 12  2  0
 12 13  1  0
 13 14  2  0
 14 15  1  0
 15 16  1  0
 16 17  2  0
 17 18  1  0
 18 19  2  0
 19 20  1  0
 20 21  2  0
 15 22  2  0
  6  1  1  0
 22 11  1  0
 21 16  1  0
  1 23  1  0
  2 24  1  0
  3 25  1  0
  4 26  1  0
  5 27  1  0
  7 28  1  1
  8 29  1  0
  9 30  1  0
  9 31  1  0
 10 32  1  0
 13 33  1  0
 17 34  1  0
 18 35  1  0
 19 36  1  0
 20 37  1  0
 21 38  1  0
 22 39  1  0
M  END
