# created with PyMOL 2.4.2
@<TRIPOS>MOLECULE
2
41 43 1                 
SMALL
USER_CHARGES
@<TRIPOS>ATOM
1	C001	17.904	-10.213	-4.514	C.2	1	UNK0	0.000	
2	C002	19.162	-10.663	-4.819	C.2	1	UNK0	0.000	
3	C003	20.200	-10.340	-4.000	C.2	1	UNK0	0.000	
4	C004	20.000	-9.572	-2.874	C.2	1	UNK0	0.000	
5	C005	18.713	-9.127	-2.586	C.2	1	UNK0	0.000	
6	C006	17.652	-9.443	-3.404	C.2	1	UNK0	0.000	
7	C007	16.308	-8.940	-3.040	C.3	1	UNK0	0.000	
8	O008	15.639	-8.422	-4.159	 O	1	UNK0	0.000	
9	C009	15.453	-9.997	-2.398	C.3	1	UNK0	0.000	
10	N010	14.172	-9.436	-2.079	N.pl3	1	UNK0	0.000	
11	C011	14.059	-8.407	-1.123	C.2	1	UNK0	0.000	
12	N012	15.104	-7.923	-0.438	N.2	1	UNK0	0.000	
13	C013	14.958	-6.939	0.467	C.2	1	UNK0	0.000	
14	N014	13.735	-6.406	0.713	N.2	1	UNK0	0.000	
15	C015	12.643	-6.844	0.062	C.2	1	UNK0	0.000	
16	C016	11.334	-6.264	0.334	C.2	1	UNK0	0.000	
17	C017	11.256	-5.241	1.292	C.2	1	UNK0	0.000	
18	C018	10.056	-4.649	1.598	C.2	1	UNK0	0.000	
19	C019	8.875	-5.020	0.992	C.2	1	UNK0	0.000	
20	C020	7.594	-4.360	1.346	C.3	1	UNK0	0.000	
21	C021	8.971	-6.024	0.056	C.2	1	UNK0	0.000	
22	C022	10.180	-6.641	-0.272	C.2	1	UNK0	0.000	
23	C023	12.804	-7.835	-0.847	C.2	1	UNK0	0.000	
24	H024	17.092	-10.483	-5.183	 H	1	UNK0	0.000	
25	H025	19.304	-11.260	-5.699	 H	1	UNK0	0.000	
26	H026	21.207	-10.685	-4.220	 H	1	UNK0	0.000	
27	H027	20.817	-9.307	-2.211	 H	1	UNK0	0.000	
28	H028	18.608	-8.528	-1.692	 H	1	UNK0	0.000	
29	H029	16.424	-8.085	-2.350	 H	1	UNK0	0.000	
30	H030	15.293	-10.871	-3.062	 H	1	UNK0	0.000	
31	H031	15.957	-10.404	-1.486	 H	1	UNK0	0.000	
32	H032	13.312	-9.780	-2.547	 H	1	UNK0	0.000	
33	H033	15.853	-6.593	0.988	 H	1	UNK0	0.000	
34	H034	12.192	-4.933	1.785	 H	1	UNK0	0.000	
35	H035	10.033	-3.859	2.346	 H	1	UNK0	0.000	
36	H036	7.691	-3.864	2.334	 H	1	UNK0	0.000	
37	H037	6.747	-5.066	1.408	 H	1	UNK0	0.000	
38	H038	7.437	-3.551	0.609	 H	1	UNK0	0.000	
39	H039	8.059	-6.345	-0.445	 H	1	UNK0	0.000	
40	H040	10.186	-7.432	-1.024	 H	1	UNK0	0.000	
41	H041	11.963	-8.219	-1.393	 H	1	UNK0	0.000	
@<TRIPOS>BOND
1 1 2 2
2 1 6 1
3 1 24 1
4 2 3 1
5 2 25 1
6 3 4 2
7 3 26 1
8 4 5 1
9 4 27 1
10 5 6 2
11 5 28 1
12 6 7 1
13 7 8 1
14 7 9 1
15 7 29 1
16 9 10 1
17 9 30 1
18 9 31 1
19 10 11 1
20 10 32 1
21 11 12 2
22 11 23 1
23 12 13 1
24 13 14 2
25 13 33 1
26 14 15 1
27 15 16 1
28 15 23 2
29 16 17 2
30 16 22 1
31 17 18 1
32 17 34 1
33 18 19 2
34 18 35 1
35 19 20 1
36 19 21 1
37 20 36 1
38 20 37 1
39 20 38 1
40 21 22 2
41 21 39 1
42 22 40 1
43 23 41 1
@<TRIPOS>SUBSTRUCTURE
1	UNK0	1	GROUP	1 ****	UNK
