# created with PyMOL 2.4.2
@<TRIPOS>MOLECULE
2
42 44 1                 
SMALL
USER_CHARGES
@<TRIPOS>ATOM
      1 C001        17.871   -10.277    -4.510 C.2     1  UNK0         0.000
      2 C002        19.142   -10.719    -4.803 C.2     1  UNK0         0.000
      3 C003        20.212   -10.384    -4.007 C.2     1  UNK0         0.000
      4 C004        20.011    -9.598    -2.905 C.2     1  UNK0         0.000
      5 C005        18.726    -9.156    -2.617 C.2     1  UNK0         0.000
      6 C006        17.646    -9.484    -3.405 C.2     1  UNK0         0.000
      7 C007        16.306    -8.974    -3.028 C.3     1  UNK0         0.000
      8 O008        15.672    -8.499    -4.198 O.3     1  UNK0         0.000
      9 C009        15.442   -10.031    -2.404 C.3     1  UNK0         0.000
     10 N010        14.163    -9.455    -2.075 N.pl3   1  UNK0         0.000
     11 C011        14.031    -8.403    -1.137 C.2     1  UNK0         0.000
     12 N012        15.034    -7.852    -0.465 N.2     1  UNK0         0.000
     13 C013        14.944    -6.870     0.417 C.2     1  UNK0         0.000
     14 N014        13.740    -6.363     0.678 N.2     1  UNK0         0.000
     15 C015        12.645    -6.858     0.042 C.2     1  UNK0         0.000
     16 C016        11.358    -6.272     0.365 C.2     1  UNK0         0.000
     17 C017        10.215    -6.734    -0.248 C.2     1  UNK0         0.000
     18 C018         8.997    -6.167     0.070 C.2     1  UNK0         0.000
     19 C019         8.931    -5.152     0.990 C.2     1  UNK0         0.000
     20 C020         7.619    -4.547     1.327 C.3     1  UNK0         0.000
     21 C021        10.084    -4.691     1.603 C.2     1  UNK0         0.000
     22 C022        11.299    -5.248     1.294 C.2     1  UNK0         0.000
     23 C023        12.757    -7.876    -0.869 C.2     1  UNK0         0.000
     24 H024        17.062   -10.557    -5.151 H       1  UNK0         0.000
     25 H025        19.329   -11.331    -5.653 H       1  UNK0         0.000
     26 H026        21.211   -10.733    -4.239 H       1  UNK0         0.000
     27 H027        20.871    -9.351    -2.298 H       1  UNK0         0.000
     28 H028        18.631    -8.538    -1.732 H       1  UNK0         0.000
     29 H029        16.456    -8.149    -2.305 H       1  UNK0         0.000
     30 H030        16.069    -7.588    -4.351 H       1  UNK0         0.000
     31 H031        15.321   -10.925    -3.027 H       1  UNK0         0.000
     32 H032        15.893   -10.378    -1.446 H       1  UNK0         0.000
     33 H033        13.312    -9.821    -2.537 H       1  UNK0         0.000
     34 H034        15.861    -6.509     0.900 H       1  UNK0         0.000
     35 H035        10.181    -7.525    -0.980 H       1  UNK0         0.000
     36 H036         8.089    -6.505    -0.391 H       1  UNK0         0.000
     37 H037         6.839    -5.338     1.306 H       1  UNK0         0.000
     38 H038         7.677    -4.105     2.348 H       1  UNK0         0.000
     39 H039         7.349    -3.805     0.550 H       1  UNK0         0.000
     40 H040        10.056    -3.882     2.340 H       1  UNK0         0.000
     41 H041        12.199    -4.909     1.755 H       1  UNK0         0.000
     42 H042        11.927    -8.309    -1.404 H       1  UNK0         0.000
@<TRIPOS>BOND
1 1 2 2
2 1 24 1
3 2 3 1
4 2 25 1
5 3 4 2
6 3 26 1
7 4 5 1
8 4 27 1
9 5 6 2
10 5 28 1
11 1 6 1
12 6 7 1
13 7 8 1
14 7 9 1
15 7 29 1
16 8 30 1
17 9 10 1
18 9 31 1
19 9 32 1
20 10 11 1
21 10 33 1
22 11 12 2
23 12 13 1
24 13 14 2
25 13 34 1
26 14 15 1
27 15 16 1
28 15 23 2
29 16 17 2
30 17 18 1
31 17 35 1
32 18 19 2
33 18 36 1
34 19 20 1
35 19 21 1
36 20 37 1
37 20 38 1
38 20 39 1
39 21 22 2
40 21 40 1
41 16 22 1
42 22 41 1
43 11 23 1
44 23 42 1
@<TRIPOS>SUBSTRUCTURE
1	UNK0	1	GROUP	1 ****	UNK
