# created with PyMOL 2.4.2
@<TRIPOS>MOLECULE
3
45 47 1                 
SMALL
USER_CHARGES
@<TRIPOS>ATOM
      1 C001        18.896    -9.167    -2.701 C.2     1  UNK0         0.000
      2 C002        20.084    -9.712    -3.161 C.2     1  UNK0         0.000
      3 C003        20.136   -10.542    -4.267 C.2     1  UNK0         0.000
      4 C004        18.954   -10.816    -4.907 C.2     1  UNK0         0.000
      5 C005        17.781   -10.273    -4.446 C.2     1  UNK0         0.000
      6 C006        17.725    -9.442    -3.341 C.2     1  UNK0         0.000
      7 C007        16.409    -8.873    -2.877 C.3     1  UNK0         0.000
      8 O008        15.781    -8.426    -4.062 O.3     1  UNK0         0.000
      9 C009        15.535    -9.956    -2.310 C.3     1  UNK0         0.000
     10 N010        14.233    -9.417    -2.033 N.pl3   1  UNK0         0.000
     11 C011        14.053    -8.377    -1.090 C.2     1  UNK0         0.000
     12 N012        15.056    -7.837    -0.386 N.2     1  UNK0         0.000
     13 C013        14.893    -6.852     0.510 C.2     1  UNK0         0.000
     14 N014        13.671    -6.367     0.727 N.2     1  UNK0         0.000
     15 C015        12.599    -6.868     0.047 C.2     1  UNK0         0.000
     16 C016        11.269    -6.296     0.326 C.2     1  UNK0         0.000
     17 C017        10.160    -6.757    -0.324 C.2     1  UNK0         0.000
     18 C018         8.929    -6.189    -0.031 C.2     1  UNK0         0.000
     19 C019         8.775    -5.181     0.887 C.2     1  UNK0         0.000
     20 C020         7.469    -4.590     1.187 C.3     1  UNK0         0.000
     21 C021         7.243    -3.423     0.249 C.3     1  UNK0         0.000
     22 C022         9.916    -4.746     1.519 C.2     1  UNK0         0.000
     23 C023        11.144    -5.285     1.252 C.2     1  UNK0         0.000
     24 C024        12.764    -7.873    -0.866 C.2     1  UNK0         0.000
     25 H025        18.862    -8.509    -1.824 H       1  UNK0         0.000
     26 H026        20.995    -9.480    -2.640 H       1  UNK0         0.000
     27 H027        21.096   -10.950    -4.595 H       1  UNK0         0.000
     28 H028        18.949   -11.456    -5.769 H       1  UNK0         0.000
     29 H029        16.818   -10.468    -4.930 H       1  UNK0         0.000
     30 H030        16.578    -8.067    -2.168 H       1  UNK0         0.000
     31 H031        16.086    -7.499    -4.250 H       1  UNK0         0.000
     32 H032        15.929   -10.366    -1.355 H       1  UNK0         0.000
     33 H033        15.498   -10.776    -3.046 H       1  UNK0         0.000
     34 H034        13.419    -9.823    -2.556 H       1  UNK0         0.000
     35 H035        15.737    -6.454     1.049 H       1  UNK0         0.000
     36 H036        10.207    -7.566    -1.076 H       1  UNK0         0.000
     37 H037         8.080    -6.601    -0.584 H       1  UNK0         0.000
     38 H038         7.459    -4.272     2.250 H       1  UNK0         0.000
     39 H039         6.672    -5.337     1.022 H       1  UNK0         0.000
     40 H040         6.773    -3.841    -0.671 H       1  UNK0         0.000
     41 H041         6.580    -2.650     0.685 H       1  UNK0         0.000
     42 H042         8.233    -3.020    -0.054 H       1  UNK0         0.000
     43 H043         9.860    -3.947     2.259 H       1  UNK0         0.000
     44 H044        12.054    -4.924     1.770 H       1  UNK0         0.000
     45 H045        11.974    -8.313    -1.434 H       1  UNK0         0.000
@<TRIPOS>BOND
1 1 2 2
2 1 25 1
3 2 3 1
4 2 26 1
5 3 4 2
6 3 27 1
7 4 5 1
8 4 28 1
9 5 6 2
10 5 29 1
11 1 6 1
12 6 7 1
13 7 8 1
14 7 9 1
15 7 30 1
16 8 31 1
17 9 10 1
18 9 32 1
19 9 33 1
20 10 11 1
21 10 34 1
22 11 12 2
23 12 13 1
24 13 14 2
25 13 35 1
26 14 15 1
27 15 16 1
28 15 24 2
29 16 17 2
30 17 18 1
31 17 36 1
32 18 19 2
33 18 37 1
34 19 20 1
35 19 22 1
36 20 21 1
37 20 38 1
38 20 39 1
39 21 40 1
40 21 41 1
41 21 42 1
42 22 23 2
43 22 43 1
44 16 23 1
45 23 44 1
46 11 24 1
47 24 45 1
@<TRIPOS>SUBSTRUCTURE
1	UNK0	1	GROUP	1 ****	UNK
