# created with PyMOL 2.4.2
@<TRIPOS>MOLECULE
5
51 53 1                 
SMALL
USER_CHARGES
@<TRIPOS>ATOM
      1 C001        17.819   -10.290    -4.496 C.2     1  UNK0         0.000
      2 C002        19.040   -10.802    -4.895 C.2     1  UNK0         0.000
      3 C003        20.195   -10.531    -4.196 C.2     1  UNK0         0.000
      4 C004        20.094    -9.728    -3.078 C.2     1  UNK0         0.000
      5 C005        18.864    -9.217    -2.684 C.2     1  UNK0         0.000
      6 C006        17.706    -9.486    -3.382 C.2     1  UNK0         0.000
      7 C007        16.401    -8.924    -2.933 C.3     1  UNK0         0.000
      8 O008        15.780    -8.444    -4.095 O.3     1  UNK0         0.000
      9 C009        15.510    -9.973    -2.354 C.3     1  UNK0         0.000
     10 N010        14.224    -9.396    -2.042 N.pl3   1  UNK0         0.000
     11 C011        14.030    -8.355    -1.095 C.2     1  UNK0         0.000
     12 N012        15.091    -7.880    -0.430 N.2     1  UNK0         0.000
     13 C013        14.892    -6.897     0.463 C.2     1  UNK0         0.000
     14 N014        13.667    -6.389     0.696 N.2     1  UNK0         0.000
     15 C015        12.569    -6.829     0.056 C.2     1  UNK0         0.000
     16 C016        11.262    -6.259     0.332 C.2     1  UNK0         0.000
     17 C017        10.086    -6.637    -0.266 C.2     1  UNK0         0.000
     18 C018         8.853    -6.063     0.030 C.2     1  UNK0         0.000
     19 C019         8.797    -5.065     0.969 C.2     1  UNK0         0.000
     20 C020         7.500    -4.453     1.288 C.3     1  UNK0         0.000
     21 C021         6.878    -5.258     2.435 C.3     1  UNK0         0.000
     22 C022         6.509    -4.530     0.143 C.3     1  UNK0         0.000
     23 C023         7.656    -3.010     1.659 C.3     1  UNK0         0.000
     24 C024         9.961    -4.649     1.600 C.2     1  UNK0         0.000
     25 C025        11.173    -5.238     1.286 C.2     1  UNK0         0.000
     26 C026        12.763    -7.834    -0.859 C.2     1  UNK0         0.000
     27 H027        16.909   -10.498    -5.039 H       1  UNK0         0.000
     28 H028        19.093   -11.430    -5.774 H       1  UNK0         0.000
     29 H029        21.170   -10.920    -4.484 H       1  UNK0         0.000
     30 H030        21.001    -9.500    -2.508 H       1  UNK0         0.000
     31 H031        18.812    -8.586    -1.799 H       1  UNK0         0.000
     32 H032        16.612    -8.146    -2.204 H       1  UNK0         0.000
     33 H033        16.205    -7.567    -4.293 H       1  UNK0         0.000
     34 H034        15.356   -10.812    -3.053 H       1  UNK0         0.000
     35 H035        15.971   -10.369    -1.419 H       1  UNK0         0.000
     36 H036        13.356    -9.760    -2.543 H       1  UNK0         0.000
     37 H037        15.733    -6.477     1.031 H       1  UNK0         0.000
     38 H038        10.117    -7.422    -1.006 H       1  UNK0         0.000
     39 H039         7.943    -6.402    -0.475 H       1  UNK0         0.000
     40 H040         7.568    -5.380     3.276 H       1  UNK0         0.000
     41 H041         6.640    -6.257     1.983 H       1  UNK0         0.000
     42 H042         5.907    -4.801     2.698 H       1  UNK0         0.000
     43 H043         5.612    -3.943     0.482 H       1  UNK0         0.000
     44 H044         6.924    -4.161    -0.806 H       1  UNK0         0.000
     45 H045         6.132    -5.562    -0.017 H       1  UNK0         0.000
     46 H046         8.177    -2.844     2.618 H       1  UNK0         0.000
     47 H047         8.250    -2.523     0.864 H       1  UNK0         0.000
     48 H048         6.631    -2.537     1.663 H       1  UNK0         0.000
     49 H049         9.927    -3.856     2.347 H       1  UNK0         0.000
     50 H050        12.094    -4.917     1.777 H       1  UNK0         0.000
     51 H051        11.909    -8.227    -1.404 H       1  UNK0         0.000
@<TRIPOS>BOND
1 1 2 2
2 1 27 1
3 2 3 1
4 2 28 1
5 3 4 2
6 3 29 1
7 4 5 1
8 4 30 1
9 5 6 2
10 5 31 1
11 1 6 1
12 6 7 1
13 7 8 1
14 7 9 1
15 7 32 1
16 8 33 1
17 9 10 1
18 9 34 1
19 9 35 1
20 10 11 1
21 10 36 1
22 11 12 2
23 12 13 1
24 13 14 2
25 13 37 1
26 14 15 1
27 15 16 1
28 15 26 2
29 16 17 2
30 17 18 1
31 17 38 1
32 18 19 2
33 18 39 1
34 19 20 1
35 19 24 1
36 20 21 1
37 20 22 1
38 20 23 1
39 21 40 1
40 21 41 1
41 21 42 1
42 22 43 1
43 22 44 1
44 22 45 1
45 23 46 1
46 23 47 1
47 23 48 1
48 24 25 2
49 24 49 1
50 16 25 1
51 25 50 1
52 11 26 1
53 26 51 1
@<TRIPOS>SUBSTRUCTURE
1	UNK0	1	GROUP	1 ****	UNK
