# created with PyMOL 2.4.2
@<TRIPOS>MOLECULE
6
41 43 1                 
SMALL
USER_CHARGES
@<TRIPOS>ATOM
1	C001	18.782	-9.533	-2.524	C.2	1	UNK0	0.000	
2	C002	20.015	-10.095	-2.858	C.2	1	UNK0	0.000	
3	C003	20.249	-10.572	-4.129	C.2	1	UNK0	0.000	
4	C004	19.233	-10.477	-5.058	C.2	1	UNK0	0.000	
5	C005	17.998	-9.911	-4.716	C.2	1	UNK0	0.000	
6	C006	17.766	-9.435	-3.445	C.2	1	UNK0	0.000	
7	C007	16.438	-8.829	-3.079	C.3	1	UNK0	0.000	
8	O008	16.636	-7.662	-2.381	 O	1	UNK0	0.000	
9	C009	15.561	-9.814	-2.386	C.3	1	UNK0	0.000	
10	N010	14.288	-9.252	-2.028	N.pl3	1	UNK0	0.000	
11	C011	14.086	-8.243	-1.041	C.2	1	UNK0	0.000	
12	N012	15.072	-7.736	-0.307	N.2	1	UNK0	0.000	
13	C013	14.857	-6.798	0.609	C.2	1	UNK0	0.000	
14	N014	13.622	-6.332	0.819	N.2	1	UNK0	0.000	
15	C015	12.571	-6.815	0.094	C.2	1	UNK0	0.000	
16	C016	11.271	-6.250	0.395	C.2	1	UNK0	0.000	
17	C017	10.163	-6.680	-0.287	C.2	1	UNK0	0.000	
18	C018	8.897	-6.139	0.000	C.2	1	UNK0	0.000	
19	C019	8.757	-5.171	0.968	C.2	1	UNK0	0.000	
20	C020	7.432	-4.586	1.288	C.3	1	UNK0	0.000	
21	F021	7.538	-3.561	2.185	 F	1	UNK0	0.000	
22	F022	6.662	-5.625	1.819	 F	1	UNK0	0.000	
23	F023	6.832	-4.166	0.123	 F	1	UNK0	0.000	
24	C024	9.871	-4.733	1.659	C.2	1	UNK0	0.000	
25	C025	11.099	-5.278	1.361	C.2	1	UNK0	0.000	
26	C026	12.790	-7.782	-0.851	C.2	1	UNK0	0.000	
27	H027	18.605	-9.158	-1.515	 H	1	UNK0	0.000	
28	H028	20.821	-10.177	-2.142	 H	1	UNK0	0.000	
29	H029	21.199	-11.016	-4.418	 H	1	UNK0	0.000	
30	H030	19.417	-10.852	-6.061	 H	1	UNK0	0.000	
31	H031	17.211	-9.843	-5.455	 H	1	UNK0	0.000	
32	H032	15.919	-8.546	-4.037	 H	1	UNK0	0.000	
33	H033	15.407	-10.746	-2.968	 H	1	UNK0	0.000	
34	H034	16.036	-10.133	-1.407	 H	1	UNK0	0.000	
35	H035	13.442	-9.626	-2.546	 H	1	UNK0	0.000	
36	H036	15.698	-6.413	1.187	 H	1	UNK0	0.000	
37	H037	10.192	-7.433	-1.058	 H	1	UNK0	0.000	
38	H038	8.020	-6.465	-0.525	 H	1	UNK0	0.000	
39	H039	9.778	-3.976	2.421	 H	1	UNK0	0.000	
40	H040	11.995	-4.946	1.895	 H	1	UNK0	0.000	
41	H041	11.978	-8.184	-1.441	 H	1	UNK0	0.000	
@<TRIPOS>BOND
1 1 2 2
2 1 6 1
3 1 27 1
4 2 3 1
5 2 28 1
6 3 4 2
7 3 29 1
8 4 5 1
9 4 30 1
10 5 6 2
11 5 31 1
12 6 7 1
13 7 8 1
14 7 9 1
15 7 32 1
16 9 10 1
17 9 33 1
18 9 34 1
19 10 11 1
20 10 35 1
21 11 12 2
22 11 26 1
23 12 13 1
24 13 14 2
25 13 36 1
26 14 15 1
27 15 16 1
28 15 26 2
29 16 17 2
30 16 25 1
31 17 18 1
32 17 37 1
33 18 19 2
34 18 38 1
35 19 20 1
36 19 24 1
37 20 21 1
38 20 22 1
39 20 23 1
40 24 25 2
41 24 39 1
42 25 40 1
43 26 41 1
@<TRIPOS>SUBSTRUCTURE
1	UNK0	1	GROUP	1 ****	UNK
