6
  PyMOL2.4          3D                             0

 42 44  0  0  0  0  0  0  0  0999 V2000
   18.8240   -9.1760   -2.6150 C   0  0  0  0  0  0  0  0  0  0  0  0
   20.0630   -9.6910   -2.9430 C   0  0  0  0  0  0  0  0  0  0  0  0
   20.2200  -10.5260   -4.0280 C   0  0  0  0  0  0  0  0  0  0  0  0
   19.0960  -10.8240   -4.7670 C   0  0  0  0  0  0  0  0  0  0  0  0
   17.8540  -10.3040   -4.4330 C   0  0  0  0  0  0  0  0  0  0  0  0
   17.6920   -9.4680   -3.3480 C   0  0  0  0  0  0  0  0  0  0  0  0
   16.3400   -8.9110   -2.9960 C   0  0  0  0  0  0  0  0  0  0  0  0
   15.7200   -8.4480   -4.1770 O   0  0  0  0  0  0  0  0  0  0  0  0
   15.4540   -9.9720   -2.4120 C   0  0  0  0  0  0  0  0  0  0  0  0
   14.1630   -9.4080   -2.1230 N   0  0  0  0  0  0  0  0  0  0  0  0
   14.0090   -8.3680   -1.1630 C   0  0  0  0  0  0  0  0  0  0  0  0
   15.0370   -7.8700   -0.4620 N   0  0  0  0  0  0  0  0  0  0  0  0
   14.9470   -6.8940    0.4520 C   0  0  0  0  0  0  0  0  0  0  0  0
   13.7340   -6.3770    0.6820 N   0  0  0  0  0  0  0  0  0  0  0  0
   12.6200   -6.8140    0.0210 C   0  0  0  0  0  0  0  0  0  0  0  0
   11.3190   -6.2210    0.3070 C   0  0  0  0  0  0  0  0  0  0  0  0
   10.1530   -6.5930   -0.3030 C   0  0  0  0  0  0  0  0  0  0  0  0
    8.9400   -5.9710    0.0310 C   0  0  0  0  0  0  0  0  0  0  0  0
    8.8710   -4.9730    0.9760 C   0  0  0  0  0  0  0  0  0  0  0  0
    7.5640   -4.3250    1.3160 C   0  0  0  0  0  0  0  0  0  0  0  0
    7.4500   -4.3450    2.6960 F   0  0  0  0  0  0  0  0  0  0  0  0
    6.5760   -5.0400    0.7130 F   0  0  0  0  0  0  0  0  0  0  0  0
    7.5240   -3.0370    0.8360 F   0  0  0  0  0  0  0  0  0  0  0  0
   10.0460   -4.5990    1.5910 C   0  0  0  0  0  0  0  0  0  0  0  0
   11.2370   -5.2100    1.2620 C   0  0  0  0  0  0  0  0  0  0  0  0
   12.7560   -7.8140   -0.9050 C   0  0  0  0  0  0  0  0  0  0  0  0
   18.6900   -8.5160   -1.7610 H   0  0  0  0  0  0  0  0  0  0  0  0
   20.9490   -9.4610   -2.3680 H   0  0  0  0  0  0  0  0  0  0  0  0
   21.2020  -10.9290   -4.2810 H   0  0  0  0  0  0  0  0  0  0  0  0
   19.2120  -11.4750   -5.6140 H   0  0  0  0  0  0  0  0  0  0  0  0
   16.9550  -10.5300   -5.0070 H   0  0  0  0  0  0  0  0  0  0  0  0
   16.5150   -8.1170   -2.2630 H   0  0  0  0  0  0  0  0  0  0  0  0
   16.4440   -8.2520   -4.8390 H   0  0  0  0  0  0  0  0  0  0  0  0
   15.3710  -10.8560   -3.0750 H   0  0  0  0  0  0  0  0  0  0  0  0
   15.8790  -10.2920   -1.4160 H   0  0  0  0  0  0  0  0  0  0  0  0
   13.3350   -9.7710   -2.6260 H   0  0  0  0  0  0  0  0  0  0  0  0
   15.7790   -6.4960    1.0140 H   0  0  0  0  0  0  0  0  0  0  0  0
   10.1750   -7.3750   -1.0510 H   0  0  0  0  0  0  0  0  0  0  0  0
    8.0350   -6.2870   -0.4680 H   0  0  0  0  0  0  0  0  0  0  0  0
    9.9870   -3.8140    2.3330 H   0  0  0  0  0  0  0  0  0  0  0  0
   12.1690   -4.9160    1.7470 H   0  0  0  0  0  0  0  0  0  0  0  0
   11.9210   -8.2190   -1.4750 H   0  0  0  0  0  0  0  0  0  0  0  0
  1  2  2  0  0  0  0
  1  6  1  0  0  0  0
  1 27  1  0  0  0  0
  2  3  1  0  0  0  0
  2 28  1  0  0  0  0
  3  4  2  0  0  0  0
  3 29  1  0  0  0  0
  4  5  1  0  0  0  0
  4 30  1  0  0  0  0
  5  6  2  0  0  0  0
  5 31  1  0  0  0  0
  6  7  1  0  0  0  0
  7  8  1  0  0  0  0
  7  9  1  0  0  0  0
  7 32  1  0  0  0  0
  8 33  1  0  0  0  0
  9 10  1  0  0  0  0
  9 34  1  0  0  0  0
  9 35  1  0  0  0  0
 10 11  1  0  0  0  0
 10 36  1  0  0  0  0
 11 12  2  0  0  0  0
 11 26  1  0  0  0  0
 12 13  1  0  0  0  0
 13 14  2  0  0  0  0
 13 37  1  0  0  0  0
 14 15  1  0  0  0  0
 15 16  1  0  0  0  0
 15 26  2  0  0  0  0
 16 17  2  0  0  0  0
 16 25  1  0  0  0  0
 17 18  1  0  0  0  0
 17 38  1  0  0  0  0
 18 19  2  0  0  0  0
 18 39  1  0  0  0  0
 19 20  1  0  0  0  0
 19 24  1  0  0  0  0
 20 21  1  0  0  0  0
 20 22  1  0  0  0  0
 20 23  1  0  0  0  0
 24 25  2  0  0  0  0
 24 40  1  0  0  0  0
 25 41  1  0  0  0  0
 26 42  1  0  0  0  0
M  END
$$$$
