@<TRIPOS>MOLECULE
physical_ligands/4/lig.pdb
 48 50 0 0 0
SMALL
GASTEIGER

@<TRIPOS>ATOM
      1 C001        3.5760   -1.7240   -2.3580 C.3     1  LIG1        0.0956
      2 H002        3.6860   -0.8010   -1.7520 H       1  LIG1        0.0659
      3 O003        2.8960   -1.3490   -3.5620 O.3     1  LIG1       -0.3856
      4 H004        2.5520   -2.1660   -3.9440 H       1  LIG1        0.2103
      5 C005        2.7310   -2.7650   -1.5570 C.3     1  LIG1        0.0406
      6 H006        2.5710   -3.6580   -2.2020 H       1  LIG1        0.0490
      7 H007        3.3230   -3.1280   -0.6790 H       1  LIG1        0.0490
      8 N008        1.4220   -2.2980   -1.0610 N.pl3   1  LIG1       -0.3262
      9 H009        0.6090   -2.4520   -1.6950 H       1  LIG1        0.1476
     10 C010        1.2600   -1.2480   -0.2270 C.ar    1  LIG1        0.1225
     11 N011        2.3950   -0.7210    0.4090 N.ar    1  LIG1       -0.2209
     12 C012        2.1500    0.3240    1.2250 C.ar    1  LIG1        0.1187
     13 H013        3.0640    0.7570    1.7210 H       1  LIG1        0.1048
     14 N014        1.0220    0.9650    1.4400 N.ar    1  LIG1       -0.2353
     15 C015       -0.1110    0.3640    0.8520 C.ar    1  LIG1        0.0760
     16 C016       -1.4100    1.0350    1.2040 C.ar    1  LIG1        0.0005
     17 C017        0.0290   -0.7090   -0.0270 C.ar    1  LIG1        0.0041
     18 H018       -0.8390   -1.1620   -0.5170 H       1  LIG1        0.0673
     19 C019        4.9370   -2.3230   -2.5850 C.ar    1  LIG1       -0.0177
     20 C020        7.3080   -2.3960   -2.0530 C.ar    1  LIG1       -0.0614
     21 H021        8.1360   -2.0620   -1.4460 H       1  LIG1        0.0618
     22 C022        7.5180   -3.2810   -3.1170 C.ar    1  LIG1       -0.0617
     23 H023        8.5180   -3.6020   -3.3610 H       1  LIG1        0.0618
     24 C024        6.4340   -3.7230   -3.8890 C.ar    1  LIG1       -0.0614
     25 H025        6.5990   -4.3830   -4.7250 H       1  LIG1        0.0618
     26 C026       -2.6130    0.6390    0.5340 C.ar    1  LIG1       -0.0523
     27 H027       -2.6130   -0.1300   -0.2200 H       1  LIG1        0.0624
     28 C028       -1.5540    2.0370    2.2050 C.ar    1  LIG1       -0.0523
     29 H029       -0.6850    2.3700    2.7640 H       1  LIG1        0.0624
     30 C030        5.1450   -3.2590   -3.6120 C.ar    1  LIG1       -0.0561
     31 H031        4.3060   -3.5700   -4.2150 H       1  LIG1        0.0621
     32 C032        6.0210   -1.9190   -1.7860 C.ar    1  LIG1       -0.0561
     33 H033        5.8640   -1.2200   -0.9790 H       1  LIG1        0.0621
     34 C061       -3.8520    1.1730    0.8820 C.ar    1  LIG1       -0.0577
     35 H062       -4.7380    0.8110    0.3820 H       1  LIG1        0.0621
     36 C063       -3.9440    2.1770    1.8530 C.ar    1  LIG1       -0.0448
     37 C064       -2.7890    2.6090    2.5150 C.ar    1  LIG1       -0.0577
     38 H065       -2.8540    3.3760    3.2700 H       1  LIG1        0.0621
     39 C066       -5.2770    2.8150    2.1400 C.3     1  LIG1       -0.0215
     40 H067       -5.1960    3.5680    2.9570 H       1  LIG1        0.0343
     41 C068       -5.7560    3.5140    0.8500 C.3     1  LIG1       -0.0587
     42 H069       -5.2870    4.5140    0.7500 H       1  LIG1        0.0235
     43 H070       -6.8600    3.6220    0.8730 H       1  LIG1        0.0235
     44 H071       -5.5120    2.9290   -0.0640 H       1  LIG1        0.0235
     45 C072       -6.2730    1.7300    2.5910 C.3     1  LIG1       -0.0587
     46 H073       -6.6920    1.2180    1.7000 H       1  LIG1        0.0235
     47 H074       -7.1160    2.1950    3.1450 H       1  LIG1        0.0235
     48 H075       -5.8010    0.9710    3.2490 H       1  LIG1        0.0235
@<TRIPOS>BOND
     1    25    24    1
     2    31    30    1
     3     4     3    1
     4    24    30   ar
     5    24    22   ar
     6    30    19   ar
     7     3     1    1
     8    23    22    1
     9    22    20   ar
    10    19     1    1
    11    19    32   ar
    12     1     2    1
    13     1     5    1
    14     6     5    1
    15    20    32   ar
    16    20    21    1
    17    32    33    1
    18     9     8    1
    19     5     8    1
    20     5     7    1
    21     8    10    1
    22    18    17    1
    23    10    17   ar
    24    10    11   ar
    25    27    26    1
    26    44    41    1
    27    17    15   ar
    28    35    34    1
    29    11    12   ar
    30    26    34   ar
    31    26    16   ar
    32    42    41    1
    33    41    43    1
    34    41    39    1
    35    15    16    1
    36    15    14   ar
    37    34    36   ar
    38    16    28   ar
    39    12    14   ar
    40    12    13    1
    41    46    45    1
    42    36    39    1
    43    36    37   ar
    44    39    45    1
    45    39    40    1
    46    28    37   ar
    47    28    29    1
    48    37    38    1
    49    45    47    1
    50    45    48    1
