@<TRIPOS>MOLECULE
physical_ligands/6/lig.pdb
 42 44 0 0 0
SMALL
GASTEIGER

@<TRIPOS>ATOM
      1 C001        3.5710   -1.7240   -2.3560 C.3     1  LIG1        0.0956
      2 H002        3.6850   -0.8010   -1.7490 H       1  LIG1        0.0659
      3 O003        2.8950   -1.3470   -3.5590 O.3     1  LIG1       -0.3856
      4 H004        2.5550   -2.1650   -3.9440 H       1  LIG1        0.2103
      5 C005        2.7360   -2.7630   -1.5530 C.3     1  LIG1        0.0406
      6 H006        2.5660   -3.6570   -2.2010 H       1  LIG1        0.0490
      7 H007        3.3160   -3.1270   -0.6780 H       1  LIG1        0.0490
      8 N008        1.3800   -2.3070   -1.0840 N.pl3   1  LIG1       -0.3262
      9 H009        0.6210   -2.4500   -1.6840 H       1  LIG1        0.1476
     10 C010        1.2960   -1.2260   -0.1990 C.ar    1  LIG1        0.1225
     11 N011        2.3480   -0.7340    0.3900 N.ar    1  LIG1       -0.2209
     12 C012        2.1820    0.3310    1.2410 C.ar    1  LIG1        0.1187
     13 H013        3.0500    0.7470    1.7140 H       1  LIG1        0.1048
     14 N014        0.9660    0.9470    1.4250 N.ar    1  LIG1       -0.2353
     15 C015       -0.0650    0.3900    0.8830 C.ar    1  LIG1        0.0760
     16 C016       -1.4350    1.0580    1.1940 C.ar    1  LIG1        0.0005
     17 C017       -0.0070   -0.7190   -0.0370 C.ar    1  LIG1        0.0041
     18 H018       -0.8500   -1.1510   -0.5130 H       1  LIG1        0.0673
     19 C019        4.9350   -2.3230   -2.5830 C.ar    1  LIG1       -0.0177
     20 C020        7.3070   -2.3950   -2.0520 C.ar    1  LIG1       -0.0614
     21 H021        8.1350   -2.0620   -1.4460 H       1  LIG1        0.0618
     22 C022        7.5160   -3.2810   -3.1180 C.ar    1  LIG1       -0.0617
     23 H023        8.5160   -3.6010   -3.3620 H       1  LIG1        0.0618
     24 C024        6.4320   -3.7220   -3.8890 C.ar    1  LIG1       -0.0614
     25 H025        6.5970   -4.3800   -4.7260 H       1  LIG1        0.0618
     26 C026       -2.6170    0.7010    0.5260 C.ar    1  LIG1       -0.0520
     27 H027       -2.6280   -0.0780   -0.2310 H       1  LIG1        0.0624
     28 C028       -1.5400    2.0600    2.1990 C.ar    1  LIG1       -0.0520
     29 H029       -0.6770    2.3690    2.7660 H       1  LIG1        0.0624
     30 C030        5.1430   -3.2580   -3.6100 C.ar    1  LIG1       -0.0561
     31 H031        4.3050   -3.5680   -4.2140 H       1  LIG1        0.0621
     32 C032        6.0200   -1.9190   -1.7850 C.ar    1  LIG1       -0.0561
     33 H033        5.8630   -1.2210   -0.9770 H       1  LIG1        0.0621
     34 C094       -3.8550    1.2660    0.8470 C.ar    1  LIG1       -0.0495
     35 H095       -4.7350    0.9130    0.3220 H       1  LIG1        0.0623
     36 C096       -3.9420    2.2590    1.8410 C.ar    1  LIG1        0.0548
     37 C097       -2.7680    2.6580    2.5060 C.ar    1  LIG1       -0.0495
     38 H098       -2.7890    3.4180    3.2770 H       1  LIG1        0.0623
     39 C099       -5.2390    2.8870    2.1950 C.3     1  LIG1        0.4174
     40 F100       -5.3160    4.1600    1.7690 F       1  LIG1       -0.1659
     41 F101       -6.3150    2.2650    1.6880 F       1  LIG1       -0.1659
     42 F102       -5.4420    2.9290    3.5240 F       1  LIG1       -0.1659
@<TRIPOS>BOND
     1    25    24    1
     2    31    30    1
     3     4     3    1
     4    24    30   ar
     5    24    22   ar
     6    30    19   ar
     7     3     1    1
     8    23    22    1
     9    22    20   ar
    10    19     1    1
    11    19    32   ar
    12     1     2    1
    13     1     5    1
    14     6     5    1
    15    20    32   ar
    16    20    21    1
    17    32    33    1
    18     9     8    1
    19     5     8    1
    20     5     7    1
    21     8    10    1
    22    18    17    1
    23    27    26    1
    24    10    17   ar
    25    10    11   ar
    26    17    15   ar
    27    35    34    1
    28    11    12   ar
    29    26    34   ar
    30    26    16   ar
    31    34    36   ar
    32    15    16    1
    33    15    14   ar
    34    16    28   ar
    35    12    14   ar
    36    12    13    1
    37    41    39    1
    38    40    39    1
    39    36    39    1
    40    36    37   ar
    41    39    42    1
    42    28    37   ar
    43    28    29    1
    44    37    38    1
