@<TRIPOS>MOLECULE
physical_ligands/1/lig.pdb
 39 41 0 0 0
SMALL
GASTEIGER

@<TRIPOS>ATOM
      1 C001       16.3640   -8.9820   -3.1450 C.3     1  LIG1        0.0956
      2 H002       16.4320   -8.0440   -2.5500 H       1  LIG1        0.0659
      3 O003       15.7430   -8.6480   -4.3760 O.3     1  LIG1       -0.3856
      4 H004       15.4690   -9.4470   -4.8240 H       1  LIG1        0.2103
      5 C005       15.4880  -10.0170   -2.3790 C.3     1  LIG1        0.0406
      6 H006       15.3330  -10.9070   -3.0310 H       1  LIG1        0.0490
      7 H007       16.0400  -10.3740   -1.4810 H       1  LIG1        0.0490
      8 N008       14.1460   -9.5310   -1.9360 N.pl3   1  LIG1       -0.3262
      9 H009       13.3650   -9.6650   -2.5720 H       1  LIG1        0.1476
     10 C010       14.0130   -8.4880   -1.0640 C.ar    1  LIG1        0.1225
     11 N011       15.0930   -8.0400   -0.3760 N.ar    1  LIG1       -0.2209
     12 C012       14.9040   -6.9840    0.4600 C.ar    1  LIG1        0.1187
     13 H013       15.7730   -6.5870    0.9930 H       1  LIG1        0.1048
     14 N014       13.7030   -6.3980    0.7140 N.ar    1  LIG1       -0.2353
     15 C015       12.6510   -6.8840    0.0420 C.ar    1  LIG1        0.0760
     16 C016       11.2980   -6.2400    0.3780 C.ar    1  LIG1        0.0005
     17 C017       12.7550   -7.9360   -0.9000 C.ar    1  LIG1        0.0041
     18 H018       11.9130   -8.3240   -1.4450 H       1  LIG1        0.0673
     19 C019       17.7420   -9.5170   -3.3710 C.ar    1  LIG1       -0.0177
     20 C020       20.1230   -9.5190   -2.8640 C.ar    1  LIG1       -0.0614
     21 H021       20.9560   -9.2170   -2.2490 H       1  LIG1        0.0618
     22 C022       20.3570  -10.3140   -3.9900 C.ar    1  LIG1       -0.0617
     23 H023       21.3470  -10.6720   -4.2260 H       1  LIG1        0.0618
     24 C024       19.2960  -10.6750   -4.8130 C.ar    1  LIG1       -0.0614
     25 H025       19.4740  -11.3470   -5.6230 H       1  LIG1        0.0618
     26 C026       10.1000   -6.6690   -0.2580 C.ar    1  LIG1       -0.0526
     27 H027       10.0940   -7.4610   -0.9930 H       1  LIG1        0.0624
     28 C028       11.1650   -5.2100    1.3540 C.ar    1  LIG1       -0.0526
     29 H029       12.0410   -4.8410    1.8710 H       1  LIG1        0.0624
     30 C030       17.9940  -10.2900   -4.5150 C.ar    1  LIG1       -0.0561
     31 H031       17.1730  -10.6080   -5.1440 H       1  LIG1        0.0621
     32 C032       18.8150   -9.1210   -2.5510 C.ar    1  LIG1       -0.0561
     33 H033       18.6310   -8.4710   -1.7090 H       1  LIG1        0.0621
     34 C034        8.8620   -6.0850    0.0410 C.ar    1  LIG1       -0.0611
     35 H035        7.9740   -6.4090   -0.4710 H       1  LIG1        0.0618
     36 C036        8.7700   -5.0920    1.0080 C.ar    1  LIG1       -0.0617
     37 H037        7.8170   -4.6490    1.2580 H       1  LIG1        0.0618
     38 C038        9.9120   -4.6680    1.6740 C.ar    1  LIG1       -0.0611
     39 H039        9.7880   -3.9310    2.4440 H       1  LIG1        0.0618
@<TRIPOS>BOND
     1    25    24    1
     2    31    30    1
     3     4     3    1
     4    24    30   ar
     5    24    22   ar
     6    30    19   ar
     7     3     1    1
     8    23    22    1
     9    22    20   ar
    10    19     1    1
    11    19    32   ar
    12     1     2    1
    13     1     5    1
    14     6     5    1
    15    20    32   ar
    16    20    21    1
    17     9     8    1
    18    32    33    1
    19     5     8    1
    20     5     7    1
    21     8    10    1
    22    18    17    1
    23    10    17   ar
    24    10    11   ar
    25    27    26    1
    26    17    15   ar
    27    35    34    1
    28    11    12   ar
    29    26    34   ar
    30    26    16   ar
    31    34    36   ar
    32    15    16    1
    33    15    14   ar
    34    16    28   ar
    35    12    14   ar
    36    12    13    1
    37    36    37    1
    38    36    38   ar
    39    28    38   ar
    40    28    29    1
    41    38    39    1
