# created with PyMOL 2.4.2
@<TRIPOS>MOLECULE
1
38 40 1                 
SMALL
USER_CHARGES
@<TRIPOS>ATOM
1	C001	18.799	-9.155	-2.631	C.2	1	UNK0	0.000	
2	C002	20.053	-9.631	-2.980	C.2	1	UNK0	0.000	
3	C003	20.202	-10.414	-4.103	C.2	1	UNK0	0.000	
4	C004	19.084	-10.718	-4.877	C.2	1	UNK0	0.000	
5	C005	17.830	-10.227	-4.507	C.2	1	UNK0	0.000	
6	C006	17.689	-9.447	-3.386	C.2	1	UNK0	0.000	
7	C007	16.383	-8.934	-2.999	C.3	1	UNK0	0.000	
8	O008	15.668	-8.408	-4.100	 O	1	UNK0	0.000	
9	C009	15.474	-10.009	-2.418	C.3	1	UNK0	0.000	
10	N010	14.231	-9.401	-2.078	N.pl3	1	UNK0	0.000	
11	C011	14.087	-8.367	-1.083	C.2	1	UNK0	0.000	
12	N012	15.114	-7.897	-0.361	N.2	1	UNK0	0.000	
13	C013	14.935	-6.923	0.562	C.2	1	UNK0	0.000	
14	N014	13.709	-6.401	0.778	N.2	1	UNK0	0.000	
15	C015	12.615	-6.820	0.090	C.2	1	UNK0	0.000	
16	C016	11.300	-6.244	0.335	C.2	1	UNK0	0.000	
17	C017	10.161	-6.627	-0.328	C.2	1	UNK0	0.000	
18	C018	8.932	-6.056	-0.068	C.2	1	UNK0	0.000	
19	C019	8.810	-5.063	0.887	C.2	1	UNK0	0.000	
20	C020	9.935	-4.669	1.557	C.2	1	UNK0	0.000	
21	C021	11.154	-5.254	1.280	C.2	1	UNK0	0.000	
22	C022	12.840	-7.812	-0.840	C.2	1	UNK0	0.000	
23	H023	18.720	-8.548	-1.751	 H	1	UNK0	0.000	
24	H024	20.921	-9.402	-2.389	 H	1	UNK0	0.000	
25	H025	21.164	-10.802	-4.405	 H	1	UNK0	0.000	
26	H026	19.211	-11.325	-5.746	 H	1	UNK0	0.000	
27	H027	16.959	-10.457	-5.099	 H	1	UNK0	0.000	
28	H028	16.452	-8.099	-2.275	 H	1	UNK0	0.000	
29	H029	15.924	-10.462	-1.506	 H	1	UNK0	0.000	
30	H030	15.308	-10.759	-3.214	 H	1	UNK0	0.000	
31	H031	13.360	-9.729	-2.586	 H	1	UNK0	0.000	
32	H032	15.736	-6.530	1.153	 H	1	UNK0	0.000	
33	H033	10.195	-7.395	-1.082	 H	1	UNK0	0.000	
34	H034	8.021	-6.340	-0.576	 H	1	UNK0	0.000	
35	H035	7.835	-4.617	1.086	 H	1	UNK0	0.000	
36	H036	9.869	-3.887	2.316	 H	1	UNK0	0.000	
37	H037	12.005	-4.898	1.844	 H	1	UNK0	0.000	
38	H038	12.020	-8.199	-1.428	 H	1	UNK0	0.000	
@<TRIPOS>BOND
1 1 2 2
2 1 6 1
3 1 23 1
4 2 3 1
5 2 24 1
6 3 4 2
7 3 25 1
8 4 5 1
9 4 26 1
10 5 6 2
11 5 27 1
12 6 7 1
13 7 8 1
14 7 9 1
15 7 28 1
16 9 10 1
17 9 29 1
18 9 30 1
19 10 11 1
20 10 31 1
21 11 12 2
22 11 22 1
23 12 13 1
24 13 14 2
25 13 32 1
26 14 15 1
27 15 16 1
28 15 22 2
29 16 17 2
30 16 21 1
31 17 18 1
32 17 33 1
33 18 19 2
34 18 34 1
35 19 20 1
36 19 35 1
37 20 21 2
38 20 36 1
39 21 37 1
40 22 38 1
@<TRIPOS>SUBSTRUCTURE
1	UNK0	1	GROUP	1 ****	UNK
