1
  PyMOL2.4          3D                             0

 38 40  0  0  0  0  0  0  0  0999 V2000
   18.7990   -9.1550   -2.6310 C   0  0  0  0  0  0  0  0  0  0  0  0
   20.0530   -9.6310   -2.9800 C   0  0  0  0  0  0  0  0  0  0  0  0
   20.2020  -10.4140   -4.1030 C   0  0  0  0  0  0  0  0  0  0  0  0
   19.0840  -10.7180   -4.8770 C   0  0  0  0  0  0  0  0  0  0  0  0
   17.8300  -10.2270   -4.5070 C   0  0  0  0  0  0  0  0  0  0  0  0
   17.6890   -9.4470   -3.3860 C   0  0  0  0  0  0  0  0  0  0  0  0
   16.3830   -8.9340   -2.9990 C   0  0  0  0  0  0  0  0  0  0  0  0
   15.6680   -8.4080   -4.1000 O   0  5  0  0  0  0  0  0  0  0  0  0
   15.4740  -10.0090   -2.4180 C   0  0  0  0  0  0  0  0  0  0  0  0
   14.2310   -9.4010   -2.0780 N   0  0  0  0  0  0  0  0  0  0  0  0
   14.0870   -8.3670   -1.0830 C   0  0  0  0  0  0  0  0  0  0  0  0
   15.1140   -7.8970   -0.3610 N   0  0  0  0  0  0  0  0  0  0  0  0
   14.9350   -6.9230    0.5620 C   0  0  0  0  0  0  0  0  0  0  0  0
   13.7090   -6.4010    0.7780 N   0  0  0  0  0  0  0  0  0  0  0  0
   12.6150   -6.8200    0.0900 C   0  0  0  0  0  0  0  0  0  0  0  0
   11.3000   -6.2440    0.3350 C   0  0  0  0  0  0  0  0  0  0  0  0
   10.1610   -6.6270   -0.3280 C   0  0  0  0  0  0  0  0  0  0  0  0
    8.9320   -6.0560   -0.0680 C   0  0  0  0  0  0  0  0  0  0  0  0
    8.8100   -5.0630    0.8870 C   0  0  0  0  0  0  0  0  0  0  0  0
    9.9350   -4.6690    1.5570 C   0  0  0  0  0  0  0  0  0  0  0  0
   11.1540   -5.2540    1.2800 C   0  0  0  0  0  0  0  0  0  0  0  0
   12.8400   -7.8120   -0.8400 C   0  0  0  0  0  0  0  0  0  0  0  0
   18.7200   -8.5480   -1.7510 H   0  0  0  0  0  0  0  0  0  0  0  0
   20.9210   -9.4020   -2.3890 H   0  0  0  0  0  0  0  0  0  0  0  0
   21.1640  -10.8020   -4.4050 H   0  0  0  0  0  0  0  0  0  0  0  0
   19.2110  -11.3250   -5.7460 H   0  0  0  0  0  0  0  0  0  0  0  0
   16.9590  -10.4570   -5.0990 H   0  0  0  0  0  0  0  0  0  0  0  0
   16.4520   -8.0990   -2.2750 H   0  0  0  0  0  0  0  0  0  0  0  0
   15.9240  -10.4620   -1.5060 H   0  0  0  0  0  0  0  0  0  0  0  0
   15.3080  -10.7590   -3.2140 H   0  0  0  0  0  0  0  0  0  0  0  0
   13.3600   -9.7290   -2.5860 H   0  0  0  0  0  0  0  0  0  0  0  0
   15.7360   -6.5300    1.1530 H   0  0  0  0  0  0  0  0  0  0  0  0
   10.1950   -7.3950   -1.0820 H   0  0  0  0  0  0  0  0  0  0  0  0
    8.0210   -6.3400   -0.5760 H   0  0  0  0  0  0  0  0  0  0  0  0
    7.8350   -4.6170    1.0860 H   0  0  0  0  0  0  0  0  0  0  0  0
    9.8690   -3.8870    2.3160 H   0  0  0  0  0  0  0  0  0  0  0  0
   12.0050   -4.8980    1.8440 H   0  0  0  0  0  0  0  0  0  0  0  0
   12.0200   -8.1990   -1.4280 H   0  0  0  0  0  0  0  0  0  0  0  0
  1  2  2  0  0  0  0
  1  6  1  0  0  0  0
  1 23  1  0  0  0  0
  2  3  1  0  0  0  0
  2 24  1  0  0  0  0
  3  4  2  0  0  0  0
  3 25  1  0  0  0  0
  4  5  1  0  0  0  0
  4 26  1  0  0  0  0
  5  6  2  0  0  0  0
  5 27  1  0  0  0  0
  6  7  1  0  0  0  0
  7  8  1  0  0  0  0
  7  9  1  0  0  0  0
  7 28  1  0  0  0  0
  9 10  1  0  0  0  0
  9 29  1  0  0  0  0
  9 30  1  0  0  0  0
 10 11  1  0  0  0  0
 10 31  1  0  0  0  0
 11 12  2  0  0  0  0
 11 22  1  0  0  0  0
 12 13  1  0  0  0  0
 13 14  2  0  0  0  0
 13 32  1  0  0  0  0
 14 15  1  0  0  0  0
 15 16  1  0  0  0  0
 15 22  2  0  0  0  0
 16 17  2  0  0  0  0
 16 21  1  0  0  0  0
 17 18  1  0  0  0  0
 17 33  1  0  0  0  0
 18 19  2  0  0  0  0
 18 34  1  0  0  0  0
 19 20  1  0  0  0  0
 19 35  1  0  0  0  0
 20 21  2  0  0  0  0
 20 36  1  0  0  0  0
 21 37  1  0  0  0  0
 22 38  1  0  0  0  0
M  END
$$$$
