# created with PyMOL 2.4.2
@<TRIPOS>MOLECULE
6
42 44 1                 
SMALL
USER_CHARGES
@<TRIPOS>ATOM
      1 C001        18.824    -9.176    -2.615 C.2     1  UNK0         0.000
      2 C002        20.063    -9.691    -2.943 C.2     1  UNK0         0.000
      3 C003        20.220   -10.526    -4.028 C.2     1  UNK0         0.000
      4 C004        19.096   -10.824    -4.767 C.2     1  UNK0         0.000
      5 C005        17.854   -10.304    -4.433 C.2     1  UNK0         0.000
      6 C006        17.692    -9.468    -3.348 C.2     1  UNK0         0.000
      7 C007        16.340    -8.911    -2.996 C.3     1  UNK0         0.000
      8 O008        15.720    -8.448    -4.177 O.3     1  UNK0         0.000
      9 C009        15.454    -9.972    -2.412 C.3     1  UNK0         0.000
     10 N010        14.163    -9.408    -2.123 N.pl3   1  UNK0         0.000
     11 C011        14.009    -8.368    -1.163 C.2     1  UNK0         0.000
     12 N012        15.037    -7.870    -0.462 N.2     1  UNK0         0.000
     13 C013        14.947    -6.894     0.452 C.2     1  UNK0         0.000
     14 N014        13.734    -6.377     0.682 N.2     1  UNK0         0.000
     15 C015        12.620    -6.814     0.021 C.2     1  UNK0         0.000
     16 C016        11.319    -6.221     0.307 C.2     1  UNK0         0.000
     17 C017        10.153    -6.593    -0.303 C.2     1  UNK0         0.000
     18 C018         8.940    -5.971     0.031 C.2     1  UNK0         0.000
     19 C019         8.871    -4.973     0.976 C.2     1  UNK0         0.000
     20 C020         7.564    -4.325     1.316 C.3     1  UNK0         0.000
     21 F021         7.450    -4.345     2.696 F       1  UNK0         0.000
     22 F022         6.576    -5.040     0.713 F       1  UNK0         0.000
     23 F023         7.524    -3.037     0.836 F       1  UNK0         0.000
     24 C024        10.046    -4.599     1.591 C.2     1  UNK0         0.000
     25 C025        11.237    -5.210     1.262 C.2     1  UNK0         0.000
     26 C026        12.756    -7.814    -0.905 C.2     1  UNK0         0.000
     27 H027        18.690    -8.516    -1.761 H       1  UNK0         0.000
     28 H028        20.949    -9.461    -2.368 H       1  UNK0         0.000
     29 H029        21.202   -10.929    -4.281 H       1  UNK0         0.000
     30 H030        19.212   -11.475    -5.614 H       1  UNK0         0.000
     31 H031        16.955   -10.530    -5.007 H       1  UNK0         0.000
     32 H032        16.515    -8.117    -2.263 H       1  UNK0         0.000
     33 H033        16.444    -8.252    -4.839 H       1  UNK0         0.000
     34 H034        15.371   -10.856    -3.075 H       1  UNK0         0.000
     35 H035        15.879   -10.292    -1.416 H       1  UNK0         0.000
     36 H036        13.335    -9.771    -2.626 H       1  UNK0         0.000
     37 H037        15.779    -6.496     1.014 H       1  UNK0         0.000
     38 H038        10.175    -7.375    -1.051 H       1  UNK0         0.000
     39 H039         8.035    -6.287    -0.468 H       1  UNK0         0.000
     40 H040         9.987    -3.814     2.333 H       1  UNK0         0.000
     41 H041        12.169    -4.916     1.747 H       1  UNK0         0.000
     42 H042        11.921    -8.219    -1.475 H       1  UNK0         0.000
@<TRIPOS>BOND
1 1 2 2
2 1 27 1
3 2 3 1
4 2 28 1
5 3 4 2
6 3 29 1
7 4 5 1
8 4 30 1
9 5 6 2
10 5 31 1
11 1 6 1
12 6 7 1
13 7 8 1
14 7 9 1
15 7 32 1
16 8 33 1
17 9 10 1
18 9 34 1
19 9 35 1
20 10 11 1
21 10 36 1
22 11 12 2
23 12 13 1
24 13 14 2
25 13 37 1
26 14 15 1
27 15 16 1
28 15 26 2
29 16 17 2
30 17 18 1
31 17 38 1
32 18 19 2
33 18 39 1
34 19 20 1
35 19 24 1
36 20 21 1
37 20 22 1
38 20 23 1
39 24 25 2
40 24 40 1
41 16 25 1
42 25 41 1
43 11 26 1
44 26 42 1
@<TRIPOS>SUBSTRUCTURE
1	UNK0	1	GROUP	1 ****	UNK
